* NGSPICE file created from ita.ext - technology: gf180mcuD

* Black-box entry subcircuit for gf180mcu_fd_sc_mcu7t5v0__fill_2 abstract view
.subckt gf180mcu_fd_sc_mcu7t5v0__fill_2 VDD VNW VPW VSS
.ends

* Black-box entry subcircuit for gf180mcu_fd_sc_mcu7t5v0__filltie abstract view
.subckt gf180mcu_fd_sc_mcu7t5v0__filltie VDD VSS
.ends

* Black-box entry subcircuit for gf180mcu_fd_sc_mcu7t5v0__fillcap_32 abstract view
.subckt gf180mcu_fd_sc_mcu7t5v0__fillcap_32 VDD VNW VPW VSS
.ends

* Black-box entry subcircuit for gf180mcu_fd_sc_mcu7t5v0__fill_1 abstract view
.subckt gf180mcu_fd_sc_mcu7t5v0__fill_1 VDD VNW VPW VSS
.ends

* Black-box entry subcircuit for gf180mcu_fd_sc_mcu7t5v0__nand4_2 abstract view
.subckt gf180mcu_fd_sc_mcu7t5v0__nand4_2 A1 A2 A3 A4 ZN VDD VNW VPW VSS
.ends

* Black-box entry subcircuit for gf180mcu_fd_sc_mcu7t5v0__fillcap_16 abstract view
.subckt gf180mcu_fd_sc_mcu7t5v0__fillcap_16 VDD VNW VPW VSS
.ends

* Black-box entry subcircuit for gf180mcu_fd_sc_mcu7t5v0__antenna abstract view
.subckt gf180mcu_fd_sc_mcu7t5v0__antenna I VDD VNW VPW VSS
.ends

* Black-box entry subcircuit for gf180mcu_fd_sc_mcu7t5v0__aoi221_4 abstract view
.subckt gf180mcu_fd_sc_mcu7t5v0__aoi221_4 A1 A2 B1 B2 C ZN VDD VNW VPW VSS
.ends

* Black-box entry subcircuit for gf180mcu_fd_sc_mcu7t5v0__fillcap_4 abstract view
.subckt gf180mcu_fd_sc_mcu7t5v0__fillcap_4 VDD VNW VPW VSS
.ends

* Black-box entry subcircuit for gf180mcu_fd_sc_mcu7t5v0__fillcap_8 abstract view
.subckt gf180mcu_fd_sc_mcu7t5v0__fillcap_8 VDD VNW VPW VSS
.ends

* Black-box entry subcircuit for gf180mcu_fd_sc_mcu7t5v0__fillcap_64 abstract view
.subckt gf180mcu_fd_sc_mcu7t5v0__fillcap_64 VDD VNW VPW VSS
.ends

* Black-box entry subcircuit for gf180mcu_fd_sc_mcu7t5v0__clkbuf_3 abstract view
.subckt gf180mcu_fd_sc_mcu7t5v0__clkbuf_3 I Z VDD VNW VPW VSS
.ends

* Black-box entry subcircuit for gf180mcu_fd_sc_mcu7t5v0__buf_2 abstract view
.subckt gf180mcu_fd_sc_mcu7t5v0__buf_2 I Z VDD VNW VPW VSS
.ends

* Black-box entry subcircuit for gf180mcu_fd_sc_mcu7t5v0__endcap abstract view
.subckt gf180mcu_fd_sc_mcu7t5v0__endcap VDD VSS
.ends

* Black-box entry subcircuit for gf180mcu_fd_sc_mcu7t5v0__nor3_4 abstract view
.subckt gf180mcu_fd_sc_mcu7t5v0__nor3_4 A1 A2 A3 ZN VDD VNW VPW VSS
.ends

* Black-box entry subcircuit for gf180mcu_fd_sc_mcu7t5v0__nand2_4 abstract view
.subckt gf180mcu_fd_sc_mcu7t5v0__nand2_4 A1 A2 ZN VDD VNW VPW VSS
.ends

* Black-box entry subcircuit for gf180mcu_fd_sc_mcu7t5v0__nor2_1 abstract view
.subckt gf180mcu_fd_sc_mcu7t5v0__nor2_1 A1 A2 ZN VDD VNW VPW VSS
.ends

* Black-box entry subcircuit for gf180mcu_fd_sc_mcu7t5v0__buf_3 abstract view
.subckt gf180mcu_fd_sc_mcu7t5v0__buf_3 I Z VDD VNW VPW VSS
.ends

* Black-box entry subcircuit for gf180mcu_fd_sc_mcu7t5v0__inv_1 abstract view
.subckt gf180mcu_fd_sc_mcu7t5v0__inv_1 I ZN VDD VNW VPW VSS
.ends

* Black-box entry subcircuit for gf180mcu_fd_sc_mcu7t5v0__aoi22_2 abstract view
.subckt gf180mcu_fd_sc_mcu7t5v0__aoi22_2 A1 A2 B1 B2 ZN VDD VNW VPW VSS
.ends

* Black-box entry subcircuit for gf180mcu_fd_sc_mcu7t5v0__buf_4 abstract view
.subckt gf180mcu_fd_sc_mcu7t5v0__buf_4 I Z VDD VNW VPW VSS
.ends

* Black-box entry subcircuit for gf180mcu_fd_sc_mcu7t5v0__oai32_4 abstract view
.subckt gf180mcu_fd_sc_mcu7t5v0__oai32_4 A1 A2 A3 B1 B2 ZN VDD VNW VPW VSS
.ends

* Black-box entry subcircuit for gf180mcu_fd_sc_mcu7t5v0__clkinv_1 abstract view
.subckt gf180mcu_fd_sc_mcu7t5v0__clkinv_1 I ZN VDD VNW VPW VSS
.ends

* Black-box entry subcircuit for gf180mcu_fd_sc_mcu7t5v0__clkbuf_8 abstract view
.subckt gf180mcu_fd_sc_mcu7t5v0__clkbuf_8 I Z VDD VNW VPW VSS
.ends

* Black-box entry subcircuit for gf180mcu_fd_sc_mcu7t5v0__nand3_4 abstract view
.subckt gf180mcu_fd_sc_mcu7t5v0__nand3_4 A1 A2 A3 ZN VDD VNW VPW VSS
.ends

* Black-box entry subcircuit for gf180mcu_fd_sc_mcu7t5v0__oai22_2 abstract view
.subckt gf180mcu_fd_sc_mcu7t5v0__oai22_2 A1 A2 B1 B2 ZN VDD VNW VPW VSS
.ends

* Black-box entry subcircuit for gf180mcu_fd_sc_mcu7t5v0__buf_8 abstract view
.subckt gf180mcu_fd_sc_mcu7t5v0__buf_8 I Z VDD VNW VPW VSS
.ends

* Black-box entry subcircuit for gf180mcu_fd_sc_mcu7t5v0__buf_1 abstract view
.subckt gf180mcu_fd_sc_mcu7t5v0__buf_1 I Z VDD VNW VPW VSS
.ends

* Black-box entry subcircuit for gf180mcu_fd_sc_mcu7t5v0__clkbuf_1 abstract view
.subckt gf180mcu_fd_sc_mcu7t5v0__clkbuf_1 I Z VDD VNW VPW VSS
.ends

* Black-box entry subcircuit for gf180mcu_fd_sc_mcu7t5v0__aoi22_4 abstract view
.subckt gf180mcu_fd_sc_mcu7t5v0__aoi22_4 A1 A2 B1 B2 ZN VDD VNW VPW VSS
.ends

* Black-box entry subcircuit for gf180mcu_fd_sc_mcu7t5v0__clkbuf_2 abstract view
.subckt gf180mcu_fd_sc_mcu7t5v0__clkbuf_2 I Z VDD VNW VPW VSS
.ends

* Black-box entry subcircuit for gf180mcu_fd_sc_mcu7t5v0__and3_1 abstract view
.subckt gf180mcu_fd_sc_mcu7t5v0__and3_1 A1 A2 A3 Z VDD VNW VPW VSS
.ends

* Black-box entry subcircuit for gf180mcu_fd_sc_mcu7t5v0__clkinv_8 abstract view
.subckt gf180mcu_fd_sc_mcu7t5v0__clkinv_8 I ZN VDD VNW VPW VSS
.ends

* Black-box entry subcircuit for gf180mcu_fd_sc_mcu7t5v0__nand4_1 abstract view
.subckt gf180mcu_fd_sc_mcu7t5v0__nand4_1 A1 A2 A3 A4 ZN VDD VNW VPW VSS
.ends

* Black-box entry subcircuit for gf180mcu_fd_sc_mcu7t5v0__nand4_4 abstract view
.subckt gf180mcu_fd_sc_mcu7t5v0__nand4_4 A1 A2 A3 A4 ZN VDD VNW VPW VSS
.ends

* Black-box entry subcircuit for gf180mcu_fd_sc_mcu7t5v0__and2_1 abstract view
.subckt gf180mcu_fd_sc_mcu7t5v0__and2_1 A1 A2 Z VDD VNW VPW VSS
.ends

* Black-box entry subcircuit for gf180mcu_fd_sc_mcu7t5v0__inv_3 abstract view
.subckt gf180mcu_fd_sc_mcu7t5v0__inv_3 I ZN VDD VNW VPW VSS
.ends

* Black-box entry subcircuit for gf180mcu_fd_sc_mcu7t5v0__aoi22_1 abstract view
.subckt gf180mcu_fd_sc_mcu7t5v0__aoi22_1 A1 A2 B1 B2 ZN VDD VNW VPW VSS
.ends

* Black-box entry subcircuit for gf180mcu_fd_sc_mcu7t5v0__nor4_4 abstract view
.subckt gf180mcu_fd_sc_mcu7t5v0__nor4_4 A1 A2 A3 A4 ZN VDD VNW VPW VSS
.ends

* Black-box entry subcircuit for gf180mcu_fd_sc_mcu7t5v0__oai32_2 abstract view
.subckt gf180mcu_fd_sc_mcu7t5v0__oai32_2 A1 A2 A3 B1 B2 ZN VDD VNW VPW VSS
.ends

* Black-box entry subcircuit for gf180mcu_fd_sc_mcu7t5v0__nor3_1 abstract view
.subckt gf180mcu_fd_sc_mcu7t5v0__nor3_1 A1 A2 A3 ZN VDD VNW VPW VSS
.ends

* Black-box entry subcircuit for gf180mcu_fd_sc_mcu7t5v0__and2_4 abstract view
.subckt gf180mcu_fd_sc_mcu7t5v0__and2_4 A1 A2 Z VDD VNW VPW VSS
.ends

* Black-box entry subcircuit for gf180mcu_fd_sc_mcu7t5v0__inv_4 abstract view
.subckt gf180mcu_fd_sc_mcu7t5v0__inv_4 I ZN VDD VNW VPW VSS
.ends

* Black-box entry subcircuit for gf180mcu_fd_sc_mcu7t5v0__nor3_2 abstract view
.subckt gf180mcu_fd_sc_mcu7t5v0__nor3_2 A1 A2 A3 ZN VDD VNW VPW VSS
.ends

* Black-box entry subcircuit for gf180mcu_fd_sc_mcu7t5v0__clkinv_2 abstract view
.subckt gf180mcu_fd_sc_mcu7t5v0__clkinv_2 I ZN VDD VNW VPW VSS
.ends

* Black-box entry subcircuit for gf180mcu_fd_sc_mcu7t5v0__nor2_2 abstract view
.subckt gf180mcu_fd_sc_mcu7t5v0__nor2_2 A1 A2 ZN VDD VNW VPW VSS
.ends

* Black-box entry subcircuit for gf180mcu_fd_sc_mcu7t5v0__and3_2 abstract view
.subckt gf180mcu_fd_sc_mcu7t5v0__and3_2 A1 A2 A3 Z VDD VNW VPW VSS
.ends

* Black-box entry subcircuit for gf180mcu_fd_sc_mcu7t5v0__oai21_2 abstract view
.subckt gf180mcu_fd_sc_mcu7t5v0__oai21_2 A1 A2 B ZN VDD VNW VPW VSS
.ends

* Black-box entry subcircuit for gf180mcu_fd_sc_mcu7t5v0__aoi221_2 abstract view
.subckt gf180mcu_fd_sc_mcu7t5v0__aoi221_2 A1 A2 B1 B2 C ZN VDD VNW VPW VSS
.ends

* Black-box entry subcircuit for gf180mcu_fd_sc_mcu7t5v0__aoi21_2 abstract view
.subckt gf180mcu_fd_sc_mcu7t5v0__aoi21_2 A1 A2 B ZN VDD VNW VPW VSS
.ends

* Black-box entry subcircuit for gf180mcu_fd_sc_mcu7t5v0__oai22_4 abstract view
.subckt gf180mcu_fd_sc_mcu7t5v0__oai22_4 A1 A2 B1 B2 ZN VDD VNW VPW VSS
.ends

* Black-box entry subcircuit for gf180mcu_fd_sc_mcu7t5v0__inv_2 abstract view
.subckt gf180mcu_fd_sc_mcu7t5v0__inv_2 I ZN VDD VNW VPW VSS
.ends

* Black-box entry subcircuit for gf180mcu_fd_sc_mcu7t5v0__oai32_1 abstract view
.subckt gf180mcu_fd_sc_mcu7t5v0__oai32_1 A1 A2 A3 B1 B2 ZN VDD VNW VPW VSS
.ends

* Black-box entry subcircuit for gf180mcu_fd_sc_mcu7t5v0__clkinv_4 abstract view
.subckt gf180mcu_fd_sc_mcu7t5v0__clkinv_4 I ZN VDD VNW VPW VSS
.ends

* Black-box entry subcircuit for gf180mcu_fd_sc_mcu7t5v0__nand3_1 abstract view
.subckt gf180mcu_fd_sc_mcu7t5v0__nand3_1 A1 A2 A3 ZN VDD VNW VPW VSS
.ends

* Black-box entry subcircuit for gf180mcu_fd_sc_mcu7t5v0__dffq_4 abstract view
.subckt gf180mcu_fd_sc_mcu7t5v0__dffq_4 D CLK Q VDD VNW VPW VSS
.ends

* Black-box entry subcircuit for gf180mcu_fd_sc_mcu7t5v0__aoi21_1 abstract view
.subckt gf180mcu_fd_sc_mcu7t5v0__aoi21_1 A1 A2 B ZN VDD VNW VPW VSS
.ends

* Black-box entry subcircuit for gf180mcu_fd_sc_mcu7t5v0__dffq_1 abstract view
.subckt gf180mcu_fd_sc_mcu7t5v0__dffq_1 D CLK Q VDD VNW VPW VSS
.ends

* Black-box entry subcircuit for gf180mcu_fd_sc_mcu7t5v0__clkbuf_4 abstract view
.subckt gf180mcu_fd_sc_mcu7t5v0__clkbuf_4 I Z VDD VNW VPW VSS
.ends

* Black-box entry subcircuit for gf180mcu_fd_sc_mcu7t5v0__clkbuf_16 abstract view
.subckt gf180mcu_fd_sc_mcu7t5v0__clkbuf_16 I Z VDD VNW VPW VSS
.ends

* Black-box entry subcircuit for gf180mcu_fd_sc_mcu7t5v0__nand2_1 abstract view
.subckt gf180mcu_fd_sc_mcu7t5v0__nand2_1 A1 A2 ZN VDD VNW VPW VSS
.ends

* Black-box entry subcircuit for gf180mcu_fd_sc_mcu7t5v0__clkinv_3 abstract view
.subckt gf180mcu_fd_sc_mcu7t5v0__clkinv_3 I ZN VDD VNW VPW VSS
.ends

* Black-box entry subcircuit for gf180mcu_fd_sc_mcu7t5v0__dffq_2 abstract view
.subckt gf180mcu_fd_sc_mcu7t5v0__dffq_2 D CLK Q VDD VNW VPW VSS
.ends

* Black-box entry subcircuit for gf180mcu_fd_sc_mcu7t5v0__and2_2 abstract view
.subckt gf180mcu_fd_sc_mcu7t5v0__and2_2 A1 A2 Z VDD VNW VPW VSS
.ends

* Black-box entry subcircuit for gf180mcu_fd_sc_mcu7t5v0__nor2_4 abstract view
.subckt gf180mcu_fd_sc_mcu7t5v0__nor2_4 A1 A2 ZN VDD VNW VPW VSS
.ends

* Black-box entry subcircuit for gf180mcu_fd_sc_mcu7t5v0__tieh abstract view
.subckt gf180mcu_fd_sc_mcu7t5v0__tieh Z VDD VNW VPW VSS
.ends

* Black-box entry subcircuit for gf180mcu_fd_sc_mcu7t5v0__tiel abstract view
.subckt gf180mcu_fd_sc_mcu7t5v0__tiel ZN VDD VNW VPW VSS
.ends

* Black-box entry subcircuit for gf180mcu_fd_sc_mcu7t5v0__and4_2 abstract view
.subckt gf180mcu_fd_sc_mcu7t5v0__and4_2 A1 A2 A3 A4 Z VDD VNW VPW VSS
.ends

.subckt ita clk io_oeb[0] io_oeb[10] io_oeb[11] io_oeb[12] io_oeb[13] io_oeb[14] io_oeb[15]
+ io_oeb[16] io_oeb[17] io_oeb[18] io_oeb[19] io_oeb[1] io_oeb[2] io_oeb[30] io_oeb[31]
+ io_oeb[32] io_oeb[33] io_oeb[34] io_oeb[35] io_oeb[36] io_oeb[37] io_oeb[3] io_oeb[4]
+ io_oeb[5] io_oeb[6] io_oeb[7] io_oeb[8] io_oeb[9] itasegm[0] itasegm[100] itasegm[101]
+ itasegm[102] itasegm[103] itasegm[104] itasegm[105] itasegm[106] itasegm[107] itasegm[108]
+ itasegm[109] itasegm[10] itasegm[110] itasegm[111] itasegm[112] itasegm[113] itasegm[114]
+ itasegm[115] itasegm[116] itasegm[117] itasegm[118] itasegm[119] itasegm[11] itasegm[120]
+ itasegm[121] itasegm[122] itasegm[123] itasegm[124] itasegm[125] itasegm[126] itasegm[127]
+ itasegm[128] itasegm[129] itasegm[12] itasegm[130] itasegm[131] itasegm[132] itasegm[133]
+ itasegm[134] itasegm[135] itasegm[136] itasegm[137] itasegm[138] itasegm[139] itasegm[13]
+ itasegm[140] itasegm[141] itasegm[142] itasegm[143] itasegm[144] itasegm[145] itasegm[146]
+ itasegm[147] itasegm[148] itasegm[149] itasegm[14] itasegm[150] itasegm[151] itasegm[152]
+ itasegm[153] itasegm[154] itasegm[155] itasegm[156] itasegm[157] itasegm[158] itasegm[159]
+ itasegm[15] itasegm[160] itasegm[161] itasegm[162] itasegm[163] itasegm[164] itasegm[165]
+ itasegm[166] itasegm[167] itasegm[168] itasegm[169] itasegm[16] itasegm[170] itasegm[171]
+ itasegm[172] itasegm[173] itasegm[174] itasegm[175] itasegm[176] itasegm[177] itasegm[178]
+ itasegm[179] itasegm[17] itasegm[180] itasegm[181] itasegm[182] itasegm[183] itasegm[184]
+ itasegm[185] itasegm[186] itasegm[187] itasegm[188] itasegm[189] itasegm[18] itasegm[190]
+ itasegm[191] itasegm[192] itasegm[193] itasegm[194] itasegm[195] itasegm[196] itasegm[197]
+ itasegm[198] itasegm[199] itasegm[19] itasegm[1] itasegm[200] itasegm[201] itasegm[202]
+ itasegm[203] itasegm[204] itasegm[205] itasegm[206] itasegm[207] itasegm[208] itasegm[209]
+ itasegm[20] itasegm[210] itasegm[211] itasegm[212] itasegm[213] itasegm[214] itasegm[215]
+ itasegm[216] itasegm[217] itasegm[218] itasegm[219] itasegm[21] itasegm[220] itasegm[221]
+ itasegm[222] itasegm[223] itasegm[224] itasegm[225] itasegm[226] itasegm[227] itasegm[228]
+ itasegm[229] itasegm[22] itasegm[230] itasegm[231] itasegm[232] itasegm[233] itasegm[234]
+ itasegm[235] itasegm[236] itasegm[237] itasegm[238] itasegm[239] itasegm[23] itasegm[240]
+ itasegm[241] itasegm[242] itasegm[243] itasegm[244] itasegm[245] itasegm[246] itasegm[247]
+ itasegm[248] itasegm[249] itasegm[24] itasegm[250] itasegm[251] itasegm[252] itasegm[253]
+ itasegm[254] itasegm[255] itasegm[256] itasegm[257] itasegm[258] itasegm[259] itasegm[25]
+ itasegm[260] itasegm[261] itasegm[262] itasegm[263] itasegm[264] itasegm[265] itasegm[266]
+ itasegm[267] itasegm[268] itasegm[269] itasegm[26] itasegm[270] itasegm[271] itasegm[272]
+ itasegm[273] itasegm[274] itasegm[275] itasegm[276] itasegm[277] itasegm[278] itasegm[279]
+ itasegm[27] itasegm[280] itasegm[281] itasegm[282] itasegm[283] itasegm[284] itasegm[285]
+ itasegm[286] itasegm[287] itasegm[288] itasegm[289] itasegm[28] itasegm[290] itasegm[291]
+ itasegm[292] itasegm[293] itasegm[294] itasegm[295] itasegm[296] itasegm[297] itasegm[298]
+ itasegm[299] itasegm[29] itasegm[2] itasegm[300] itasegm[301] itasegm[302] itasegm[303]
+ itasegm[304] itasegm[305] itasegm[306] itasegm[307] itasegm[308] itasegm[309] itasegm[30]
+ itasegm[310] itasegm[311] itasegm[312] itasegm[313] itasegm[314] itasegm[315] itasegm[316]
+ itasegm[317] itasegm[318] itasegm[319] itasegm[31] itasegm[320] itasegm[321] itasegm[322]
+ itasegm[323] itasegm[324] itasegm[325] itasegm[326] itasegm[327] itasegm[328] itasegm[329]
+ itasegm[32] itasegm[330] itasegm[331] itasegm[332] itasegm[333] itasegm[334] itasegm[335]
+ itasegm[336] itasegm[337] itasegm[338] itasegm[339] itasegm[33] itasegm[340] itasegm[341]
+ itasegm[342] itasegm[343] itasegm[344] itasegm[345] itasegm[346] itasegm[347] itasegm[348]
+ itasegm[349] itasegm[34] itasegm[350] itasegm[351] itasegm[352] itasegm[353] itasegm[354]
+ itasegm[355] itasegm[356] itasegm[357] itasegm[358] itasegm[359] itasegm[35] itasegm[360]
+ itasegm[361] itasegm[362] itasegm[363] itasegm[364] itasegm[365] itasegm[366] itasegm[367]
+ itasegm[368] itasegm[369] itasegm[36] itasegm[370] itasegm[371] itasegm[372] itasegm[373]
+ itasegm[374] itasegm[375] itasegm[376] itasegm[377] itasegm[378] itasegm[379] itasegm[37]
+ itasegm[380] itasegm[381] itasegm[382] itasegm[383] itasegm[384] itasegm[385] itasegm[386]
+ itasegm[387] itasegm[388] itasegm[389] itasegm[38] itasegm[390] itasegm[391] itasegm[392]
+ itasegm[393] itasegm[394] itasegm[395] itasegm[396] itasegm[397] itasegm[398] itasegm[399]
+ itasegm[39] itasegm[3] itasegm[400] itasegm[401] itasegm[402] itasegm[403] itasegm[404]
+ itasegm[405] itasegm[406] itasegm[407] itasegm[408] itasegm[409] itasegm[40] itasegm[410]
+ itasegm[411] itasegm[412] itasegm[413] itasegm[414] itasegm[415] itasegm[416] itasegm[417]
+ itasegm[418] itasegm[419] itasegm[41] itasegm[420] itasegm[421] itasegm[422] itasegm[423]
+ itasegm[424] itasegm[425] itasegm[426] itasegm[427] itasegm[428] itasegm[429] itasegm[42]
+ itasegm[430] itasegm[431] itasegm[432] itasegm[433] itasegm[434] itasegm[435] itasegm[436]
+ itasegm[437] itasegm[438] itasegm[439] itasegm[43] itasegm[440] itasegm[441] itasegm[442]
+ itasegm[443] itasegm[444] itasegm[445] itasegm[446] itasegm[447] itasegm[448] itasegm[449]
+ itasegm[44] itasegm[450] itasegm[451] itasegm[452] itasegm[453] itasegm[454] itasegm[455]
+ itasegm[456] itasegm[457] itasegm[458] itasegm[459] itasegm[45] itasegm[460] itasegm[461]
+ itasegm[462] itasegm[463] itasegm[464] itasegm[465] itasegm[466] itasegm[467] itasegm[468]
+ itasegm[469] itasegm[46] itasegm[470] itasegm[471] itasegm[472] itasegm[473] itasegm[474]
+ itasegm[475] itasegm[476] itasegm[477] itasegm[478] itasegm[479] itasegm[47] itasegm[480]
+ itasegm[481] itasegm[482] itasegm[483] itasegm[484] itasegm[485] itasegm[486] itasegm[487]
+ itasegm[488] itasegm[489] itasegm[48] itasegm[490] itasegm[491] itasegm[492] itasegm[493]
+ itasegm[494] itasegm[495] itasegm[496] itasegm[497] itasegm[498] itasegm[499] itasegm[49]
+ itasegm[4] itasegm[500] itasegm[501] itasegm[502] itasegm[503] itasegm[504] itasegm[505]
+ itasegm[506] itasegm[507] itasegm[508] itasegm[509] itasegm[50] itasegm[510] itasegm[511]
+ itasegm[512] itasegm[513] itasegm[514] itasegm[515] itasegm[516] itasegm[517] itasegm[518]
+ itasegm[519] itasegm[51] itasegm[520] itasegm[521] itasegm[522] itasegm[523] itasegm[524]
+ itasegm[525] itasegm[526] itasegm[527] itasegm[528] itasegm[529] itasegm[52] itasegm[530]
+ itasegm[531] itasegm[532] itasegm[533] itasegm[534] itasegm[535] itasegm[536] itasegm[537]
+ itasegm[538] itasegm[539] itasegm[53] itasegm[540] itasegm[541] itasegm[542] itasegm[543]
+ itasegm[544] itasegm[545] itasegm[546] itasegm[547] itasegm[548] itasegm[549] itasegm[54]
+ itasegm[550] itasegm[551] itasegm[552] itasegm[553] itasegm[554] itasegm[555] itasegm[556]
+ itasegm[557] itasegm[558] itasegm[559] itasegm[55] itasegm[560] itasegm[561] itasegm[562]
+ itasegm[563] itasegm[564] itasegm[565] itasegm[566] itasegm[567] itasegm[568] itasegm[569]
+ itasegm[56] itasegm[570] itasegm[571] itasegm[572] itasegm[573] itasegm[574] itasegm[575]
+ itasegm[576] itasegm[577] itasegm[578] itasegm[579] itasegm[57] itasegm[580] itasegm[581]
+ itasegm[582] itasegm[583] itasegm[584] itasegm[585] itasegm[586] itasegm[587] itasegm[588]
+ itasegm[589] itasegm[58] itasegm[590] itasegm[591] itasegm[592] itasegm[593] itasegm[594]
+ itasegm[595] itasegm[596] itasegm[597] itasegm[598] itasegm[599] itasegm[59] itasegm[5]
+ itasegm[600] itasegm[601] itasegm[602] itasegm[603] itasegm[604] itasegm[605] itasegm[606]
+ itasegm[607] itasegm[608] itasegm[609] itasegm[60] itasegm[610] itasegm[611] itasegm[612]
+ itasegm[613] itasegm[614] itasegm[615] itasegm[616] itasegm[617] itasegm[618] itasegm[619]
+ itasegm[61] itasegm[620] itasegm[621] itasegm[622] itasegm[623] itasegm[624] itasegm[625]
+ itasegm[626] itasegm[627] itasegm[628] itasegm[629] itasegm[62] itasegm[630] itasegm[631]
+ itasegm[632] itasegm[633] itasegm[634] itasegm[635] itasegm[636] itasegm[637] itasegm[638]
+ itasegm[639] itasegm[63] itasegm[640] itasegm[641] itasegm[642] itasegm[643] itasegm[644]
+ itasegm[645] itasegm[646] itasegm[647] itasegm[648] itasegm[649] itasegm[64] itasegm[650]
+ itasegm[651] itasegm[652] itasegm[653] itasegm[654] itasegm[655] itasegm[656] itasegm[657]
+ itasegm[658] itasegm[659] itasegm[65] itasegm[660] itasegm[661] itasegm[662] itasegm[663]
+ itasegm[664] itasegm[665] itasegm[666] itasegm[667] itasegm[668] itasegm[669] itasegm[66]
+ itasegm[670] itasegm[671] itasegm[672] itasegm[673] itasegm[674] itasegm[675] itasegm[676]
+ itasegm[677] itasegm[678] itasegm[679] itasegm[67] itasegm[680] itasegm[681] itasegm[682]
+ itasegm[683] itasegm[684] itasegm[685] itasegm[686] itasegm[687] itasegm[688] itasegm[689]
+ itasegm[68] itasegm[690] itasegm[691] itasegm[692] itasegm[693] itasegm[694] itasegm[695]
+ itasegm[696] itasegm[697] itasegm[698] itasegm[699] itasegm[69] itasegm[6] itasegm[700]
+ itasegm[701] itasegm[702] itasegm[703] itasegm[704] itasegm[705] itasegm[706] itasegm[707]
+ itasegm[708] itasegm[709] itasegm[70] itasegm[710] itasegm[711] itasegm[712] itasegm[713]
+ itasegm[714] itasegm[715] itasegm[716] itasegm[717] itasegm[718] itasegm[719] itasegm[71]
+ itasegm[720] itasegm[721] itasegm[722] itasegm[723] itasegm[724] itasegm[725] itasegm[726]
+ itasegm[727] itasegm[728] itasegm[729] itasegm[72] itasegm[730] itasegm[731] itasegm[732]
+ itasegm[733] itasegm[734] itasegm[735] itasegm[736] itasegm[737] itasegm[738] itasegm[739]
+ itasegm[73] itasegm[740] itasegm[741] itasegm[742] itasegm[743] itasegm[744] itasegm[745]
+ itasegm[746] itasegm[747] itasegm[748] itasegm[749] itasegm[74] itasegm[750] itasegm[751]
+ itasegm[752] itasegm[753] itasegm[754] itasegm[755] itasegm[756] itasegm[757] itasegm[758]
+ itasegm[759] itasegm[75] itasegm[760] itasegm[761] itasegm[762] itasegm[763] itasegm[764]
+ itasegm[765] itasegm[766] itasegm[767] itasegm[768] itasegm[769] itasegm[76] itasegm[770]
+ itasegm[771] itasegm[772] itasegm[773] itasegm[774] itasegm[775] itasegm[776] itasegm[777]
+ itasegm[778] itasegm[779] itasegm[77] itasegm[780] itasegm[781] itasegm[782] itasegm[783]
+ itasegm[784] itasegm[785] itasegm[786] itasegm[787] itasegm[788] itasegm[789] itasegm[78]
+ itasegm[790] itasegm[791] itasegm[792] itasegm[793] itasegm[794] itasegm[795] itasegm[796]
+ itasegm[797] itasegm[798] itasegm[799] itasegm[79] itasegm[7] itasegm[800] itasegm[801]
+ itasegm[802] itasegm[803] itasegm[804] itasegm[805] itasegm[806] itasegm[807] itasegm[808]
+ itasegm[809] itasegm[80] itasegm[810] itasegm[811] itasegm[812] itasegm[813] itasegm[814]
+ itasegm[815] itasegm[816] itasegm[817] itasegm[818] itasegm[819] itasegm[81] itasegm[820]
+ itasegm[821] itasegm[822] itasegm[823] itasegm[824] itasegm[825] itasegm[826] itasegm[827]
+ itasegm[828] itasegm[829] itasegm[82] itasegm[830] itasegm[831] itasegm[832] itasegm[833]
+ itasegm[834] itasegm[835] itasegm[836] itasegm[837] itasegm[838] itasegm[839] itasegm[83]
+ itasegm[840] itasegm[841] itasegm[842] itasegm[843] itasegm[844] itasegm[845] itasegm[846]
+ itasegm[847] itasegm[848] itasegm[849] itasegm[84] itasegm[850] itasegm[851] itasegm[852]
+ itasegm[853] itasegm[854] itasegm[855] itasegm[856] itasegm[857] itasegm[858] itasegm[859]
+ itasegm[85] itasegm[860] itasegm[861] itasegm[862] itasegm[863] itasegm[864] itasegm[865]
+ itasegm[866] itasegm[867] itasegm[868] itasegm[869] itasegm[86] itasegm[870] itasegm[871]
+ itasegm[872] itasegm[873] itasegm[874] itasegm[875] itasegm[876] itasegm[877] itasegm[878]
+ itasegm[879] itasegm[87] itasegm[880] itasegm[881] itasegm[882] itasegm[883] itasegm[884]
+ itasegm[885] itasegm[886] itasegm[887] itasegm[888] itasegm[889] itasegm[88] itasegm[890]
+ itasegm[891] itasegm[892] itasegm[893] itasegm[894] itasegm[895] itasegm[89] itasegm[8]
+ itasegm[90] itasegm[91] itasegm[92] itasegm[93] itasegm[94] itasegm[95] itasegm[96]
+ itasegm[97] itasegm[98] itasegm[99] itasegm[9] itasel[0] itasel[100] itasel[101]
+ itasel[102] itasel[103] itasel[104] itasel[105] itasel[106] itasel[107] itasel[108]
+ itasel[109] itasel[10] itasel[110] itasel[111] itasel[112] itasel[113] itasel[114]
+ itasel[115] itasel[116] itasel[117] itasel[118] itasel[119] itasel[11] itasel[120]
+ itasel[121] itasel[122] itasel[123] itasel[124] itasel[125] itasel[126] itasel[127]
+ itasel[128] itasel[129] itasel[12] itasel[130] itasel[131] itasel[132] itasel[133]
+ itasel[134] itasel[135] itasel[136] itasel[137] itasel[138] itasel[139] itasel[13]
+ itasel[140] itasel[141] itasel[142] itasel[143] itasel[144] itasel[145] itasel[146]
+ itasel[147] itasel[148] itasel[149] itasel[14] itasel[150] itasel[151] itasel[152]
+ itasel[153] itasel[154] itasel[155] itasel[156] itasel[157] itasel[158] itasel[159]
+ itasel[15] itasel[160] itasel[161] itasel[162] itasel[163] itasel[164] itasel[165]
+ itasel[166] itasel[167] itasel[168] itasel[169] itasel[16] itasel[170] itasel[171]
+ itasel[172] itasel[173] itasel[174] itasel[175] itasel[176] itasel[177] itasel[178]
+ itasel[179] itasel[17] itasel[180] itasel[181] itasel[182] itasel[183] itasel[184]
+ itasel[185] itasel[186] itasel[187] itasel[188] itasel[189] itasel[18] itasel[190]
+ itasel[191] itasel[192] itasel[193] itasel[194] itasel[195] itasel[196] itasel[197]
+ itasel[198] itasel[199] itasel[19] itasel[1] itasel[200] itasel[201] itasel[202]
+ itasel[203] itasel[204] itasel[205] itasel[206] itasel[207] itasel[208] itasel[209]
+ itasel[20] itasel[210] itasel[211] itasel[212] itasel[213] itasel[214] itasel[215]
+ itasel[216] itasel[217] itasel[218] itasel[219] itasel[21] itasel[220] itasel[221]
+ itasel[222] itasel[223] itasel[224] itasel[225] itasel[226] itasel[227] itasel[228]
+ itasel[229] itasel[22] itasel[230] itasel[231] itasel[232] itasel[233] itasel[234]
+ itasel[235] itasel[236] itasel[237] itasel[238] itasel[239] itasel[23] itasel[240]
+ itasel[241] itasel[242] itasel[243] itasel[244] itasel[245] itasel[246] itasel[247]
+ itasel[248] itasel[249] itasel[24] itasel[250] itasel[251] itasel[252] itasel[253]
+ itasel[254] itasel[255] itasel[256] itasel[257] itasel[258] itasel[259] itasel[25]
+ itasel[260] itasel[261] itasel[262] itasel[263] itasel[264] itasel[265] itasel[266]
+ itasel[267] itasel[268] itasel[269] itasel[26] itasel[270] itasel[271] itasel[272]
+ itasel[273] itasel[274] itasel[275] itasel[276] itasel[277] itasel[278] itasel[279]
+ itasel[27] itasel[280] itasel[281] itasel[282] itasel[283] itasel[284] itasel[285]
+ itasel[286] itasel[287] itasel[288] itasel[289] itasel[28] itasel[290] itasel[291]
+ itasel[292] itasel[293] itasel[294] itasel[295] itasel[296] itasel[297] itasel[298]
+ itasel[299] itasel[29] itasel[2] itasel[300] itasel[301] itasel[302] itasel[303]
+ itasel[304] itasel[305] itasel[306] itasel[307] itasel[308] itasel[309] itasel[30]
+ itasel[310] itasel[311] itasel[312] itasel[313] itasel[314] itasel[315] itasel[316]
+ itasel[317] itasel[318] itasel[319] itasel[31] itasel[320] itasel[321] itasel[322]
+ itasel[323] itasel[324] itasel[325] itasel[326] itasel[327] itasel[328] itasel[329]
+ itasel[32] itasel[330] itasel[331] itasel[332] itasel[333] itasel[334] itasel[335]
+ itasel[336] itasel[337] itasel[338] itasel[339] itasel[33] itasel[340] itasel[341]
+ itasel[342] itasel[343] itasel[344] itasel[345] itasel[346] itasel[347] itasel[348]
+ itasel[349] itasel[34] itasel[350] itasel[351] itasel[352] itasel[353] itasel[354]
+ itasel[355] itasel[356] itasel[357] itasel[358] itasel[359] itasel[35] itasel[360]
+ itasel[361] itasel[362] itasel[363] itasel[364] itasel[365] itasel[366] itasel[367]
+ itasel[368] itasel[369] itasel[36] itasel[370] itasel[371] itasel[372] itasel[373]
+ itasel[374] itasel[375] itasel[376] itasel[377] itasel[378] itasel[379] itasel[37]
+ itasel[380] itasel[381] itasel[382] itasel[383] itasel[384] itasel[385] itasel[386]
+ itasel[387] itasel[388] itasel[389] itasel[38] itasel[390] itasel[391] itasel[392]
+ itasel[393] itasel[394] itasel[395] itasel[396] itasel[397] itasel[398] itasel[399]
+ itasel[39] itasel[3] itasel[400] itasel[401] itasel[402] itasel[403] itasel[404]
+ itasel[405] itasel[406] itasel[407] itasel[408] itasel[409] itasel[40] itasel[410]
+ itasel[411] itasel[412] itasel[413] itasel[414] itasel[415] itasel[416] itasel[417]
+ itasel[418] itasel[419] itasel[41] itasel[420] itasel[421] itasel[422] itasel[423]
+ itasel[424] itasel[425] itasel[426] itasel[427] itasel[428] itasel[429] itasel[42]
+ itasel[430] itasel[431] itasel[432] itasel[433] itasel[434] itasel[435] itasel[436]
+ itasel[437] itasel[438] itasel[439] itasel[43] itasel[440] itasel[441] itasel[442]
+ itasel[443] itasel[444] itasel[445] itasel[446] itasel[447] itasel[448] itasel[449]
+ itasel[44] itasel[450] itasel[451] itasel[452] itasel[453] itasel[454] itasel[455]
+ itasel[456] itasel[457] itasel[458] itasel[459] itasel[45] itasel[460] itasel[461]
+ itasel[462] itasel[463] itasel[464] itasel[465] itasel[466] itasel[467] itasel[468]
+ itasel[469] itasel[46] itasel[470] itasel[471] itasel[472] itasel[473] itasel[474]
+ itasel[475] itasel[476] itasel[477] itasel[478] itasel[479] itasel[47] itasel[480]
+ itasel[481] itasel[482] itasel[483] itasel[484] itasel[485] itasel[486] itasel[487]
+ itasel[488] itasel[489] itasel[48] itasel[490] itasel[491] itasel[492] itasel[493]
+ itasel[494] itasel[495] itasel[496] itasel[497] itasel[498] itasel[499] itasel[49]
+ itasel[4] itasel[500] itasel[501] itasel[502] itasel[503] itasel[504] itasel[505]
+ itasel[506] itasel[507] itasel[508] itasel[509] itasel[50] itasel[510] itasel[511]
+ itasel[512] itasel[513] itasel[514] itasel[515] itasel[516] itasel[517] itasel[518]
+ itasel[519] itasel[51] itasel[520] itasel[521] itasel[522] itasel[523] itasel[524]
+ itasel[525] itasel[526] itasel[527] itasel[528] itasel[529] itasel[52] itasel[530]
+ itasel[531] itasel[532] itasel[533] itasel[534] itasel[535] itasel[536] itasel[537]
+ itasel[538] itasel[539] itasel[53] itasel[540] itasel[541] itasel[542] itasel[543]
+ itasel[544] itasel[545] itasel[546] itasel[547] itasel[548] itasel[549] itasel[54]
+ itasel[550] itasel[551] itasel[552] itasel[553] itasel[554] itasel[555] itasel[556]
+ itasel[557] itasel[558] itasel[559] itasel[55] itasel[560] itasel[561] itasel[562]
+ itasel[563] itasel[564] itasel[565] itasel[566] itasel[567] itasel[568] itasel[569]
+ itasel[56] itasel[570] itasel[571] itasel[572] itasel[573] itasel[574] itasel[575]
+ itasel[576] itasel[577] itasel[578] itasel[579] itasel[57] itasel[580] itasel[581]
+ itasel[582] itasel[583] itasel[584] itasel[585] itasel[586] itasel[587] itasel[588]
+ itasel[589] itasel[58] itasel[590] itasel[591] itasel[592] itasel[593] itasel[594]
+ itasel[595] itasel[596] itasel[597] itasel[598] itasel[599] itasel[59] itasel[5]
+ itasel[600] itasel[601] itasel[602] itasel[603] itasel[604] itasel[605] itasel[606]
+ itasel[607] itasel[608] itasel[609] itasel[60] itasel[610] itasel[611] itasel[612]
+ itasel[613] itasel[614] itasel[615] itasel[616] itasel[617] itasel[618] itasel[619]
+ itasel[61] itasel[620] itasel[621] itasel[622] itasel[623] itasel[624] itasel[625]
+ itasel[626] itasel[627] itasel[628] itasel[629] itasel[62] itasel[630] itasel[631]
+ itasel[632] itasel[633] itasel[634] itasel[635] itasel[636] itasel[637] itasel[638]
+ itasel[639] itasel[63] itasel[640] itasel[641] itasel[642] itasel[643] itasel[644]
+ itasel[645] itasel[646] itasel[647] itasel[648] itasel[649] itasel[64] itasel[650]
+ itasel[651] itasel[652] itasel[653] itasel[654] itasel[655] itasel[656] itasel[657]