*SPEF "ieee 1481-1999"
*DESIGN "ita3"
*DATE "11:11:11 Fri 11 11, 1111"
*VENDOR "OpenRCX"
*PROGRAM "Parallel Extraction"
*VERSION "1.0"
*DESIGN_FLOW "NAME_SCOPE LOCAL" "PIN_CAP NONE"
*DIVIDER /
*DELIMITER :
*BUS_DELIMITER []
*T_UNIT 1 NS
*C_UNIT 1 PF
*R_UNIT 1 OHM
*L_UNIT 1 HENRY

*NAME_MAP
*1 clk
*2 segm[0]
*3 segm[10]
*4 segm[11]
*5 segm[12]
*6 segm[13]
*7 net23
*8 net24
*9 segm[3]
*10 net25
*11 net26
*12 segm[6]
*13 segm[7]
*14 segm[8]
*15 segm[9]
*16 sel[0]
*17 sel[10]
*18 sel[11]
*19 sel[1]
*20 sel[2]
*21 sel[3]
*22 sel[4]
*23 sel[5]
*24 sel[6]
*25 sel[7]
*26 sel[8]
*27 sel[9]
*30 _000_
*31 _001_
*32 _002_
*33 _003_
*34 _004_
*35 _005_
*36 _006_
*37 _007_
*38 _008_
*39 _009_
*40 _010_
*41 _011_
*42 _012_
*43 _013_
*44 _014_
*45 _015_
*46 _016_
*47 _017_
*48 _018_
*49 _019_
*50 _020_
*51 _021_
*52 _022_
*53 _023_
*54 _024_
*55 _025_
*56 _026_
*57 _027_
*58 _028_
*59 _029_
*60 _030_
*61 _031_
*62 _032_
*63 _033_
*64 _034_
*65 _035_
*66 _036_
*67 _037_
*68 _038_
*69 _039_
*70 _040_
*71 _041_
*72 _042_
*73 _043_
*74 _044_
*75 _045_
*76 _046_
*77 _047_
*78 _048_
*79 _049_
*80 _050_
*81 _051_
*82 _052_
*83 _053_
*84 _054_
*85 _055_
*86 _056_
*87 _057_
*88 _058_
*89 _059_
*90 _060_
*91 _061_
*92 _062_
*93 _063_
*94 _064_
*95 _065_
*96 _066_
*97 _067_
*98 _068_
*99 _069_
*100 _070_
*101 _071_
*102 _072_
*103 _073_
*104 _074_
*105 _075_
*106 _076_
*107 _077_
*108 _078_
*109 _079_
*110 _080_
*111 _081_
*112 _082_
*113 _083_
*114 _084_
*115 _085_
*116 _086_
*117 _087_
*118 _088_
*119 _089_
*120 _090_
*121 _091_
*122 _092_
*123 _093_
*124 _094_
*125 clknet_0_clk
*126 clknet_1_0__leaf_clk
*127 clknet_1_1__leaf_clk
*128 dut3\.count\[0\]
*129 dut3\.count\[1\]
*130 dut3\.count\[2\]
*131 dut3\.count\[3\]
*132 net1
*133 net10
*134 net11
*135 net12
*136 net13
*137 net14
*138 net15
*139 net16
*140 net17
*141 net18
*142 net19
*143 net2
*144 net20
*145 net21
*146 net22
*147 net3
*148 net4
*149 net5
*150 net6
*151 net7
*152 net8
*153 net9
*154 ANTENNA__190__CLK
*155 ANTENNA__191__CLK
*156 ANTENNA__192__CLK
*157 ANTENNA__193__CLK
*158 ANTENNA__194__CLK
*159 ANTENNA__195__CLK
*160 ANTENNA__196__CLK
*161 ANTENNA__197__CLK
*162 ANTENNA__198__CLK
*163 ANTENNA__199__CLK
*164 ANTENNA__200__CLK
*165 ANTENNA__201__CLK
*166 ANTENNA__202__CLK
*167 ANTENNA__203__CLK
*168 ANTENNA__204__CLK
*169 ANTENNA__205__CLK
*170 ANTENNA__206__CLK
*171 ANTENNA__207__CLK
*172 ANTENNA__208__CLK
*173 ANTENNA__209__CLK
*174 ANTENNA__210__CLK
*175 ANTENNA__211__CLK
*176 ANTENNA__212__CLK
*177 ANTENNA__213__CLK
*178 ANTENNA_clkbuf_0_clk_I
*179 FILLER_0_0_104
*180 FILLER_0_0_138
*181 FILLER_0_0_165
*182 FILLER_0_0_169
*183 FILLER_0_0_172
*184 FILLER_0_0_2
*185 FILLER_0_0_232
*186 FILLER_0_0_236
*187 FILLER_0_0_240
*188 FILLER_0_0_274
*189 FILLER_0_0_308
*190 FILLER_0_0_342
*191 FILLER_0_0_346
*192 FILLER_0_0_348
*193 FILLER_0_0_36
*194 FILLER_0_0_70
*195 FILLER_0_10_101
*196 FILLER_0_10_107
*197 FILLER_0_10_171
*198 FILLER_0_10_177
*199 FILLER_0_10_2
*200 FILLER_0_10_241
*201 FILLER_0_10_247
*202 FILLER_0_10_311
*203 FILLER_0_10_317
*204 FILLER_0_10_34
*205 FILLER_0_10_37
*206 FILLER_0_11_136
*207 FILLER_0_11_142
*208 FILLER_0_11_2
*209 FILLER_0_11_206
*210 FILLER_0_11_212
*211 FILLER_0_11_276
*212 FILLER_0_11_282
*213 FILLER_0_11_346
*214 FILLER_0_11_348
*215 FILLER_0_11_66
*216 FILLER_0_11_72
*217 FILLER_0_12_101
*218 FILLER_0_12_107
*219 FILLER_0_12_171
*220 FILLER_0_12_177
*221 FILLER_0_12_2
*222 FILLER_0_12_241
*223 FILLER_0_12_247
*224 FILLER_0_12_311
*225 FILLER_0_12_317
*226 FILLER_0_12_34
*227 FILLER_0_12_37
*228 FILLER_0_13_136
*229 FILLER_0_13_142
*230 FILLER_0_13_2
*231 FILLER_0_13_206
*232 FILLER_0_13_212
*233 FILLER_0_13_276
*234 FILLER_0_13_282
*235 FILLER_0_13_346
*236 FILLER_0_13_348
*237 FILLER_0_13_66
*238 FILLER_0_13_72
*239 FILLER_0_14_101
*240 FILLER_0_14_107
*241 FILLER_0_14_123
*242 FILLER_0_14_131
*243 FILLER_0_14_139
*244 FILLER_0_14_143
*245 FILLER_0_14_177
*246 FILLER_0_14_2
*247 FILLER_0_14_241
*248 FILLER_0_14_247
*249 FILLER_0_14_311
*250 FILLER_0_14_317
*251 FILLER_0_14_34
*252 FILLER_0_14_37
*253 FILLER_0_15_104
*254 FILLER_0_15_107
*255 FILLER_0_15_142
*256 FILLER_0_15_146
*257 FILLER_0_15_162
*258 FILLER_0_15_164
*259 FILLER_0_15_194
*260 FILLER_0_15_198
*261 FILLER_0_15_2
*262 FILLER_0_15_206
*263 FILLER_0_15_241
*264 FILLER_0_15_245
*265 FILLER_0_15_277
*266 FILLER_0_15_279
*267 FILLER_0_15_282
*268 FILLER_0_15_346
*269 FILLER_0_15_348
*270 FILLER_0_15_66
*271 FILLER_0_15_72
*272 FILLER_0_16_121
*273 FILLER_0_16_129
*274 FILLER_0_16_143
*275 FILLER_0_16_177
*276 FILLER_0_16_185
*277 FILLER_0_16_189
*278 FILLER_0_16_2
*279 FILLER_0_16_228
*280 FILLER_0_16_232
*281 FILLER_0_16_240
*282 FILLER_0_16_244
*283 FILLER_0_16_247
*284 FILLER_0_16_311
*285 FILLER_0_16_317
*286 FILLER_0_16_34
*287 FILLER_0_16_37
*288 FILLER_0_16_69
*289 FILLER_0_16_73
*290 FILLER_0_16_75
*291 FILLER_0_17_108
*292 FILLER_0_17_110
*293 FILLER_0_17_142
*294 FILLER_0_17_169
*295 FILLER_0_17_171
*296 FILLER_0_17_180
*297 FILLER_0_17_202
*298 FILLER_0_17_212
*299 FILLER_0_17_220
*300 FILLER_0_17_224
*301 FILLER_0_17_226
*302 FILLER_0_17_256
*303 FILLER_0_17_260
*304 FILLER_0_17_276
*305 FILLER_0_17_28
*306 FILLER_0_17_282
*307 FILLER_0_17_346
*308 FILLER_0_17_348
*309 FILLER_0_17_60
*310 FILLER_0_17_68
*311 FILLER_0_17_72
*312 FILLER_0_17_76
*313 FILLER_0_17_78
*314 FILLER_0_18_115
*315 FILLER_0_18_119
*316 FILLER_0_18_135
*317 FILLER_0_18_139
*318 FILLER_0_18_158
*319 FILLER_0_18_166
*320 FILLER_0_18_170
*321 FILLER_0_18_177
*322 FILLER_0_18_211
*323 FILLER_0_18_219
*324 FILLER_0_18_228
*325 FILLER_0_18_244
*326 FILLER_0_18_247
*327 FILLER_0_18_28
*328 FILLER_0_18_311
*329 FILLER_0_18_317
*330 FILLER_0_18_32
*331 FILLER_0_18_321
*332 FILLER_0_18_34
*333 FILLER_0_18_37
*334 FILLER_0_18_69
*335 FILLER_0_18_85
*336 FILLER_0_18_93
*337 FILLER_0_18_97
*338 FILLER_0_18_99
*339 FILLER_0_19_104
*340 FILLER_0_19_120
*341 FILLER_0_19_128
*342 FILLER_0_19_136
*343 FILLER_0_19_148
*344 FILLER_0_19_175
*345 FILLER_0_19_181
*346 FILLER_0_19_2
*347 FILLER_0_19_208
*348 FILLER_0_19_212
*349 FILLER_0_19_228
*350 FILLER_0_19_232
*351 FILLER_0_19_246
*352 FILLER_0_19_278
*353 FILLER_0_19_282
*354 FILLER_0_19_314
*355 FILLER_0_19_322
*356 FILLER_0_19_66
*357 FILLER_0_19_72
*358 FILLER_0_1_136
*359 FILLER_0_1_142
*360 FILLER_0_1_2
*361 FILLER_0_1_206
*362 FILLER_0_1_212
*363 FILLER_0_1_216
*364 FILLER_0_1_243
*365 FILLER_0_1_275
*366 FILLER_0_1_279
*367 FILLER_0_1_282
*368 FILLER_0_1_346
*369 FILLER_0_1_348
*370 FILLER_0_1_66
*371 FILLER_0_1_72
*372 FILLER_0_20_101
*373 FILLER_0_20_107
*374 FILLER_0_20_115
*375 FILLER_0_20_119
*376 FILLER_0_20_128
*377 FILLER_0_20_134
*378 FILLER_0_20_144
*379 FILLER_0_20_177
*380 FILLER_0_20_192
*381 FILLER_0_20_194
*382 FILLER_0_20_2
*383 FILLER_0_20_215
*384 FILLER_0_20_224
*385 FILLER_0_20_226
*386 FILLER_0_20_235
*387 FILLER_0_20_243
*388 FILLER_0_20_247
*389 FILLER_0_20_311
*390 FILLER_0_20_317
*391 FILLER_0_20_34
*392 FILLER_0_20_37
*393 FILLER_0_21_138
*394 FILLER_0_21_142
*395 FILLER_0_21_146
*396 FILLER_0_21_170
*397 FILLER_0_21_172
*398 FILLER_0_21_183
*399 FILLER_0_21_220
*400 FILLER_0_21_253
*401 FILLER_0_21_257
*402 FILLER_0_21_273
*403 FILLER_0_21_277
*404 FILLER_0_21_279
*405 FILLER_0_21_28
*406 FILLER_0_21_282
*407 FILLER_0_21_346
*408 FILLER_0_21_348
*409 FILLER_0_21_60
*410 FILLER_0_21_68
*411 FILLER_0_21_72
*412 FILLER_0_21_88
*413 FILLER_0_21_96
*414 FILLER_0_22_121
*415 FILLER_0_22_194
*416 FILLER_0_22_253
*417 FILLER_0_22_28
*418 FILLER_0_22_285
*419 FILLER_0_22_301
*420 FILLER_0_22_309
*421 FILLER_0_22_313
*422 FILLER_0_22_317
*423 FILLER_0_22_32
*424 FILLER_0_22_321
*425 FILLER_0_22_34
*426 FILLER_0_22_37
*427 FILLER_0_22_69
*428 FILLER_0_22_73
*429 FILLER_0_22_75
*430 FILLER_0_23_112
*431 FILLER_0_23_116
*432 FILLER_0_23_120
*433 FILLER_0_23_126
*434 FILLER_0_23_134
*435 FILLER_0_23_138
*436 FILLER_0_23_142
*437 FILLER_0_23_218
*438 FILLER_0_23_256
*439 FILLER_0_23_260
*440 FILLER_0_23_276
*441 FILLER_0_23_28
*442 FILLER_0_23_282
*443 FILLER_0_23_314
*444 FILLER_0_23_322
*445 FILLER_0_23_60
*446 FILLER_0_23_68
*447 FILLER_0_23_72
*448 FILLER_0_24_101
*449 FILLER_0_24_107
*450 FILLER_0_24_123
*451 FILLER_0_24_127
*452 FILLER_0_24_172
*453 FILLER_0_24_174
*454 FILLER_0_24_2
*455 FILLER_0_24_223
*456 FILLER_0_24_239
*457 FILLER_0_24_243
*458 FILLER_0_24_247
*459 FILLER_0_24_311
*460 FILLER_0_24_317
*461 FILLER_0_24_34
*462 FILLER_0_24_37
*463 FILLER_0_25_104
*464 FILLER_0_25_108
*465 FILLER_0_25_118
*466 FILLER_0_25_122
*467 FILLER_0_25_124
*468 FILLER_0_25_135
*469 FILLER_0_25_139
*470 FILLER_0_25_148
*471 FILLER_0_25_156
*472 FILLER_0_25_2
*473 FILLER_0_25_203
*474 FILLER_0_25_207
*475 FILLER_0_25_209
*476 FILLER_0_25_220
*477 FILLER_0_25_252
*478 FILLER_0_25_268
*479 FILLER_0_25_276
*480 FILLER_0_25_282
*481 FILLER_0_25_314
*482 FILLER_0_25_322
*483 FILLER_0_25_66
*484 FILLER_0_25_72
*485 FILLER_0_26_107
*486 FILLER_0_26_138
*487 FILLER_0_26_142
*488 FILLER_0_26_150
*489 FILLER_0_26_154
*490 FILLER_0_26_156
*491 FILLER_0_26_164
*492 FILLER_0_26_168
*493 FILLER_0_26_177
*494 FILLER_0_26_193
*495 FILLER_0_26_197
*496 FILLER_0_26_239
*497 FILLER_0_26_243
*498 FILLER_0_26_247
*499 FILLER_0_26_28
*500 FILLER_0_26_311
*501 FILLER_0_26_317
*502 FILLER_0_26_32
*503 FILLER_0_26_34
*504 FILLER_0_26_37
*505 FILLER_0_26_69
*506 FILLER_0_26_85
*507 FILLER_0_26_93
*508 FILLER_0_26_97
*509 FILLER_0_27_118
*510 FILLER_0_27_122
*511 FILLER_0_27_134
*512 FILLER_0_27_138
*513 FILLER_0_27_142
*514 FILLER_0_27_158
*515 FILLER_0_27_162
*516 FILLER_0_27_171
*517 FILLER_0_27_175
*518 FILLER_0_27_183
*519 FILLER_0_27_199
*520 FILLER_0_27_207
*521 FILLER_0_27_209
*522 FILLER_0_27_212
*523 FILLER_0_27_218
*524 FILLER_0_27_250
*525 FILLER_0_27_266
*526 FILLER_0_27_274
*527 FILLER_0_27_278
*528 FILLER_0_27_28
*529 FILLER_0_27_282
*530 FILLER_0_27_346
*531 FILLER_0_27_348
*532 FILLER_0_27_60
*533 FILLER_0_27_68
*534 FILLER_0_27_72
*535 FILLER_0_27_80
*536 FILLER_0_28_107
*537 FILLER_0_28_116
*538 FILLER_0_28_120
*539 FILLER_0_28_127
*540 FILLER_0_28_131
*541 FILLER_0_28_140
*542 FILLER_0_28_148
*543 FILLER_0_28_152
*544 FILLER_0_28_155
*545 FILLER_0_28_168
*546 FILLER_0_28_172
*547 FILLER_0_28_174
*548 FILLER_0_28_182
*549 FILLER_0_28_198
*550 FILLER_0_28_200
*551 FILLER_0_28_236
*552 FILLER_0_28_240
*553 FILLER_0_28_244
*554 FILLER_0_28_247
*555 FILLER_0_28_28
*556 FILLER_0_28_311
*557 FILLER_0_28_317
*558 FILLER_0_28_32
*559 FILLER_0_28_321
*560 FILLER_0_28_34
*561 FILLER_0_28_37
*562 FILLER_0_28_69
*563 FILLER_0_28_73
*564 FILLER_0_28_75
*565 FILLER_0_29_104
*566 FILLER_0_29_107
*567 FILLER_0_29_109
*568 FILLER_0_29_139
*569 FILLER_0_29_142
*570 FILLER_0_29_146
*571 FILLER_0_29_198
*572 FILLER_0_29_2
*573 FILLER_0_29_206
*574 FILLER_0_29_212
*575 FILLER_0_29_276
*576 FILLER_0_29_282
*577 FILLER_0_29_314
*578 FILLER_0_29_322
*579 FILLER_0_29_66
*580 FILLER_0_29_72
*581 FILLER_0_2_101
*582 FILLER_0_2_107
*583 FILLER_0_2_171
*584 FILLER_0_2_177
*585 FILLER_0_2_2
*586 FILLER_0_2_241
*587 FILLER_0_2_247
*588 FILLER_0_2_311
*589 FILLER_0_2_317
*590 FILLER_0_2_34
*591 FILLER_0_2_37
*592 FILLER_0_30_101
*593 FILLER_0_30_107
*594 FILLER_0_30_123
*595 FILLER_0_30_131
*596 FILLER_0_30_171
*597 FILLER_0_30_177
*598 FILLER_0_30_2
*599 FILLER_0_30_207
*600 FILLER_0_30_211
*601 FILLER_0_30_243
*602 FILLER_0_30_247
*603 FILLER_0_30_311
*604 FILLER_0_30_317
*605 FILLER_0_30_333
*606 FILLER_0_30_34
*607 FILLER_0_30_341
*608 FILLER_0_30_37
*609 FILLER_0_31_136
*610 FILLER_0_31_142
*611 FILLER_0_31_2
*612 FILLER_0_31_206
*613 FILLER_0_31_212
*614 FILLER_0_31_276
*615 FILLER_0_31_282
*616 FILLER_0_31_346
*617 FILLER_0_31_348
*618 FILLER_0_31_66
*619 FILLER_0_31_72
*620 FILLER_0_32_101
*621 FILLER_0_32_107
*622 FILLER_0_32_171
*623 FILLER_0_32_177
*624 FILLER_0_32_2
*625 FILLER_0_32_241
*626 FILLER_0_32_247
*627 FILLER_0_32_311
*628 FILLER_0_32_317
*629 FILLER_0_32_34
*630 FILLER_0_32_37
*631 FILLER_0_33_136
*632 FILLER_0_33_142
*633 FILLER_0_33_2
*634 FILLER_0_33_206
*635 FILLER_0_33_212
*636 FILLER_0_33_276
*637 FILLER_0_33_282
*638 FILLER_0_33_346
*639 FILLER_0_33_348
*640 FILLER_0_33_66
*641 FILLER_0_33_72
*642 FILLER_0_34_101
*643 FILLER_0_34_107
*644 FILLER_0_34_171
*645 FILLER_0_34_177
*646 FILLER_0_34_2
*647 FILLER_0_34_241
*648 FILLER_0_34_247
*649 FILLER_0_34_311
*650 FILLER_0_34_317
*651 FILLER_0_34_34
*652 FILLER_0_34_37
*653 FILLER_0_35_136
*654 FILLER_0_35_142
*655 FILLER_0_35_2
*656 FILLER_0_35_206
*657 FILLER_0_35_212
*658 FILLER_0_35_276
*659 FILLER_0_35_282
*660 FILLER_0_35_346
*661 FILLER_0_35_348
*662 FILLER_0_35_66
*663 FILLER_0_35_72
*664 FILLER_0_36_101
*665 FILLER_0_36_107
*666 FILLER_0_36_171
*667 FILLER_0_36_177
*668 FILLER_0_36_2
*669 FILLER_0_36_241
*670 FILLER_0_36_247
*671 FILLER_0_36_311
*672 FILLER_0_36_317
*673 FILLER_0_36_34
*674 FILLER_0_36_37
*675 FILLER_0_37_136
*676 FILLER_0_37_142
*677 FILLER_0_37_2
*678 FILLER_0_37_206
*679 FILLER_0_37_212
*680 FILLER_0_37_276
*681 FILLER_0_37_282
*682 FILLER_0_37_346
*683 FILLER_0_37_348
*684 FILLER_0_37_66
*685 FILLER_0_37_72
*686 FILLER_0_38_101
*687 FILLER_0_38_107
*688 FILLER_0_38_171
*689 FILLER_0_38_177
*690 FILLER_0_38_2
*691 FILLER_0_38_241
*692 FILLER_0_38_247
*693 FILLER_0_38_311
*694 FILLER_0_38_317
*695 FILLER_0_38_34
*696 FILLER_0_38_37
*697 FILLER_0_39_136
*698 FILLER_0_39_142
*699 FILLER_0_39_2
*700 FILLER_0_39_206
*701 FILLER_0_39_212
*702 FILLER_0_39_276
*703 FILLER_0_39_282
*704 FILLER_0_39_346
*705 FILLER_0_39_348
*706 FILLER_0_39_66
*707 FILLER_0_39_72
*708 FILLER_0_3_136
*709 FILLER_0_3_142
*710 FILLER_0_3_2
*711 FILLER_0_3_206
*712 FILLER_0_3_212
*713 FILLER_0_3_276
*714 FILLER_0_3_282
*715 FILLER_0_3_346
*716 FILLER_0_3_348
*717 FILLER_0_3_66
*718 FILLER_0_3_72
*719 FILLER_0_40_101
*720 FILLER_0_40_107
*721 FILLER_0_40_171
*722 FILLER_0_40_177
*723 FILLER_0_40_2
*724 FILLER_0_40_241
*725 FILLER_0_40_247
*726 FILLER_0_40_311
*727 FILLER_0_40_317
*728 FILLER_0_40_34
*729 FILLER_0_40_37
*730 FILLER_0_41_136
*731 FILLER_0_41_142
*732 FILLER_0_41_2
*733 FILLER_0_41_206
*734 FILLER_0_41_212
*735 FILLER_0_41_276
*736 FILLER_0_41_282
*737 FILLER_0_41_346
*738 FILLER_0_41_348
*739 FILLER_0_41_66
*740 FILLER_0_41_72
*741 FILLER_0_42_101
*742 FILLER_0_42_107
*743 FILLER_0_42_171
*744 FILLER_0_42_177
*745 FILLER_0_42_22
*746 FILLER_0_42_241
*747 FILLER_0_42_247
*748 FILLER_0_42_30
*749 FILLER_0_42_311
*750 FILLER_0_42_317
*751 FILLER_0_42_333
*752 FILLER_0_42_34
*753 FILLER_0_42_341
*754 FILLER_0_42_37
*755 FILLER_0_42_6
*756 FILLER_0_43_136
*757 FILLER_0_43_142
*758 FILLER_0_43_158
*759 FILLER_0_43_162
*760 FILLER_0_43_189
*761 FILLER_0_43_2
*762 FILLER_0_43_205
*763 FILLER_0_43_209
*764 FILLER_0_43_212
*765 FILLER_0_43_276
*766 FILLER_0_43_282
*767 FILLER_0_43_346
*768 FILLER_0_43_348
*769 FILLER_0_43_66
*770 FILLER_0_43_72
*771 FILLER_0_44_104
*772 FILLER_0_44_138
*773 FILLER_0_44_169
*774 FILLER_0_44_172
*775 FILLER_0_44_176
*776 FILLER_0_44_2
*777 FILLER_0_44_232
*778 FILLER_0_44_236
*779 FILLER_0_44_240
*780 FILLER_0_44_274
*781 FILLER_0_44_308
*782 FILLER_0_44_342
*783 FILLER_0_44_346
*784 FILLER_0_44_348
*785 FILLER_0_44_36
*786 FILLER_0_44_70
*787 FILLER_0_4_101
*788 FILLER_0_4_107
*789 FILLER_0_4_171
*790 FILLER_0_4_177
*791 FILLER_0_4_2
*792 FILLER_0_4_241
*793 FILLER_0_4_247
*794 FILLER_0_4_311
*795 FILLER_0_4_317
*796 FILLER_0_4_34
*797 FILLER_0_4_37
*798 FILLER_0_5_136
*799 FILLER_0_5_142
*800 FILLER_0_5_2
*801 FILLER_0_5_206
*802 FILLER_0_5_212
*803 FILLER_0_5_276
*804 FILLER_0_5_282
*805 FILLER_0_5_346
*806 FILLER_0_5_348
*807 FILLER_0_5_66
*808 FILLER_0_5_72
*809 FILLER_0_6_101
*810 FILLER_0_6_107
*811 FILLER_0_6_171
*812 FILLER_0_6_177
*813 FILLER_0_6_2
*814 FILLER_0_6_241
*815 FILLER_0_6_247
*816 FILLER_0_6_311
*817 FILLER_0_6_317
*818 FILLER_0_6_34
*819 FILLER_0_6_37
*820 FILLER_0_7_136
*821 FILLER_0_7_142
*822 FILLER_0_7_2
*823 FILLER_0_7_206
*824 FILLER_0_7_212
*825 FILLER_0_7_276
*826 FILLER_0_7_282
*827 FILLER_0_7_346
*828 FILLER_0_7_348
*829 FILLER_0_7_66
*830 FILLER_0_7_72
*831 FILLER_0_8_101
*832 FILLER_0_8_107
*833 FILLER_0_8_171
*834 FILLER_0_8_177
*835 FILLER_0_8_2
*836 FILLER_0_8_241
*837 FILLER_0_8_247
*838 FILLER_0_8_311
*839 FILLER_0_8_317
*840 FILLER_0_8_34
*841 FILLER_0_8_37
*842 FILLER_0_9_136
*843 FILLER_0_9_142
*844 FILLER_0_9_2
*845 FILLER_0_9_206
*846 FILLER_0_9_212
*847 FILLER_0_9_276
*848 FILLER_0_9_282
*849 FILLER_0_9_346
*850 FILLER_0_9_348
*851 FILLER_0_9_66
*852 FILLER_0_9_72
*853 PHY_EDGE_ROW_0_Left_45
*854 PHY_EDGE_ROW_0_Right_0
*855 PHY_EDGE_ROW_10_Left_55
*856 PHY_EDGE_ROW_10_Right_10
*857 PHY_EDGE_ROW_11_Left_56
*858 PHY_EDGE_ROW_11_Right_11
*859 PHY_EDGE_ROW_12_Left_57
*860 PHY_EDGE_ROW_12_Right_12
*861 PHY_EDGE_ROW_13_Left_58
*862 PHY_EDGE_ROW_13_Right_13
*863 PHY_EDGE_ROW_14_Left_59
*864 PHY_EDGE_ROW_14_Right_14
*865 PHY_EDGE_ROW_15_Left_60
*866 PHY_EDGE_ROW_15_Right_15
*867 PHY_EDGE_ROW_16_Left_61
*868 PHY_EDGE_ROW_16_Right_16
*869 PHY_EDGE_ROW_17_Left_62
*870 PHY_EDGE_ROW_17_Right_17
*871 PHY_EDGE_ROW_18_Left_63
*872 PHY_EDGE_ROW_18_Right_18
*873 PHY_EDGE_ROW_19_Left_64
*874 PHY_EDGE_ROW_19_Right_19
*875 PHY_EDGE_ROW_1_Left_46
*876 PHY_EDGE_ROW_1_Right_1
*877 PHY_EDGE_ROW_20_Left_65
*878 PHY_EDGE_ROW_20_Right_20
*879 PHY_EDGE_ROW_21_Left_66
*880 PHY_EDGE_ROW_21_Right_21
*881 PHY_EDGE_ROW_22_Left_67
*882 PHY_EDGE_ROW_22_Right_22
*883 PHY_EDGE_ROW_23_Left_68
*884 PHY_EDGE_ROW_23_Right_23
*885 PHY_EDGE_ROW_24_Left_69
*886 PHY_EDGE_ROW_24_Right_24
*887 PHY_EDGE_ROW_25_Left_70
*888 PHY_EDGE_ROW_25_Right_25
*889 PHY_EDGE_ROW_26_Left_71
*890 PHY_EDGE_ROW_26_Right_26
*891 PHY_EDGE_ROW_27_Left_72
*892 PHY_EDGE_ROW_27_Right_27
*893 PHY_EDGE_ROW_28_Left_73
*894 PHY_EDGE_ROW_28_Right_28
*895 PHY_EDGE_ROW_29_Left_74
*896 PHY_EDGE_ROW_29_Right_29
*897 PHY_EDGE_ROW_2_Left_47
*898 PHY_EDGE_ROW_2_Right_2
*899 PHY_EDGE_ROW_30_Left_75
*900 PHY_EDGE_ROW_30_Right_30
*901 PHY_EDGE_ROW_31_Left_76
*902 PHY_EDGE_ROW_31_Right_31
*903 PHY_EDGE_ROW_32_Left_77
*904 PHY_EDGE_ROW_32_Right_32
*905 PHY_EDGE_ROW_33_Left_78
*906 PHY_EDGE_ROW_33_Right_33
*907 PHY_EDGE_ROW_34_Left_79
*908 PHY_EDGE_ROW_34_Right_34
*909 PHY_EDGE_ROW_35_Left_80
*910 PHY_EDGE_ROW_35_Right_35
*911 PHY_EDGE_ROW_36_Left_81
*912 PHY_EDGE_ROW_36_Right_36
*913 PHY_EDGE_ROW_37_Left_82
*914 PHY_EDGE_ROW_37_Right_37
*915 PHY_EDGE_ROW_38_Left_83
*916 PHY_EDGE_ROW_38_Right_38
*917 PHY_EDGE_ROW_39_Left_84
*918 PHY_EDGE_ROW_39_Right_39
*919 PHY_EDGE_ROW_3_Left_48
*920 PHY_EDGE_ROW_3_Right_3
*921 PHY_EDGE_ROW_40_Left_85
*922 PHY_EDGE_ROW_40_Right_40
*923 PHY_EDGE_ROW_41_Left_86
*924 PHY_EDGE_ROW_41_Right_41
*925 PHY_EDGE_ROW_42_Left_87
*926 PHY_EDGE_ROW_42_Right_42
*927 PHY_EDGE_ROW_43_Left_88
*928 PHY_EDGE_ROW_43_Right_43
*929 PHY_EDGE_ROW_44_Left_89
*930 PHY_EDGE_ROW_44_Right_44
*931 PHY_EDGE_ROW_4_Left_49
*932 PHY_EDGE_ROW_4_Right_4
*933 PHY_EDGE_ROW_5_Left_50
*934 PHY_EDGE_ROW_5_Right_5
*935 PHY_EDGE_ROW_6_Left_51
*936 PHY_EDGE_ROW_6_Right_6
*937 PHY_EDGE_ROW_7_Left_52
*938 PHY_EDGE_ROW_7_Right_7
*939 PHY_EDGE_ROW_8_Left_53
*940 PHY_EDGE_ROW_8_Right_8
*941 PHY_EDGE_ROW_9_Left_54
*942 PHY_EDGE_ROW_9_Right_9
*943 TAP_TAPCELL_ROW_0_90
*944 TAP_TAPCELL_ROW_0_91
*945 TAP_TAPCELL_ROW_0_92
*946 TAP_TAPCELL_ROW_0_93
*947 TAP_TAPCELL_ROW_0_94
*948 TAP_TAPCELL_ROW_0_95
*949 TAP_TAPCELL_ROW_0_96
*950 TAP_TAPCELL_ROW_0_97
*951 TAP_TAPCELL_ROW_0_98
*952 TAP_TAPCELL_ROW_0_99
*953 TAP_TAPCELL_ROW_10_140
*954 TAP_TAPCELL_ROW_10_141
*955 TAP_TAPCELL_ROW_10_142
*956 TAP_TAPCELL_ROW_10_143
*957 TAP_TAPCELL_ROW_10_144
*958 TAP_TAPCELL_ROW_11_145
*959 TAP_TAPCELL_ROW_11_146
*960 TAP_TAPCELL_ROW_11_147
*961 TAP_TAPCELL_ROW_11_148
*962 TAP_TAPCELL_ROW_12_149
*963 TAP_TAPCELL_ROW_12_150
*964 TAP_TAPCELL_ROW_12_151
*965 TAP_TAPCELL_ROW_12_152
*966 TAP_TAPCELL_ROW_12_153
*967 TAP_TAPCELL_ROW_13_154
*968 TAP_TAPCELL_ROW_13_155
*969 TAP_TAPCELL_ROW_13_156
*970 TAP_TAPCELL_ROW_13_157
*971 TAP_TAPCELL_ROW_14_158
*972 TAP_TAPCELL_ROW_14_159
*973 TAP_TAPCELL_ROW_14_160
*974 TAP_TAPCELL_ROW_14_161
*975 TAP_TAPCELL_ROW_14_162
*976 TAP_TAPCELL_ROW_15_163
*977 TAP_TAPCELL_ROW_15_164
*978 TAP_TAPCELL_ROW_15_165
*979 TAP_TAPCELL_ROW_15_166
*980 TAP_TAPCELL_ROW_16_167
*981 TAP_TAPCELL_ROW_16_168
*982 TAP_TAPCELL_ROW_16_169
*983 TAP_TAPCELL_ROW_16_170
*984 TAP_TAPCELL_ROW_16_171
*985 TAP_TAPCELL_ROW_17_172
*986 TAP_TAPCELL_ROW_17_173
*987 TAP_TAPCELL_ROW_17_174
*988 TAP_TAPCELL_ROW_17_175
*989 TAP_TAPCELL_ROW_18_176
*990 TAP_TAPCELL_ROW_18_177
*991 TAP_TAPCELL_ROW_18_178
*992 TAP_TAPCELL_ROW_18_179
*993 TAP_TAPCELL_ROW_18_180
*994 TAP_TAPCELL_ROW_19_181
*995 TAP_TAPCELL_ROW_19_182
*996 TAP_TAPCELL_ROW_19_183
*997 TAP_TAPCELL_ROW_19_184
*998 TAP_TAPCELL_ROW_1_100
*999 TAP_TAPCELL_ROW_1_101
*1000 TAP_TAPCELL_ROW_1_102
*1001 TAP_TAPCELL_ROW_1_103
*1002 TAP_TAPCELL_ROW_20_185
*1003 TAP_TAPCELL_ROW_20_186
*1004 TAP_TAPCELL_ROW_20_187
*1005 TAP_TAPCELL_ROW_20_188
*1006 TAP_TAPCELL_ROW_20_189
*1007 TAP_TAPCELL_ROW_21_190
*1008 TAP_TAPCELL_ROW_21_191
*1009 TAP_TAPCELL_ROW_21_192
*1010 TAP_TAPCELL_ROW_21_193
*1011 TAP_TAPCELL_ROW_22_194
*1012 TAP_TAPCELL_ROW_22_195
*1013 TAP_TAPCELL_ROW_22_196
*1014 TAP_TAPCELL_ROW_22_197
*1015 TAP_TAPCELL_ROW_22_198
*1016 TAP_TAPCELL_ROW_23_199
*1017 TAP_TAPCELL_ROW_23_200
*1018 TAP_TAPCELL_ROW_23_201
*1019 TAP_TAPCELL_ROW_23_202
*1020 TAP_TAPCELL_ROW_24_203
*1021 TAP_TAPCELL_ROW_24_204
*1022 TAP_TAPCELL_ROW_24_205
*1023 TAP_TAPCELL_ROW_24_206
*1024 TAP_TAPCELL_ROW_24_207
*1025 TAP_TAPCELL_ROW_25_208
*1026 TAP_TAPCELL_ROW_25_209
*1027 TAP_TAPCELL_ROW_25_210
*1028 TAP_TAPCELL_ROW_25_211
*1029 TAP_TAPCELL_ROW_26_212
*1030 TAP_TAPCELL_ROW_26_213
*1031 TAP_TAPCELL_ROW_26_214
*1032 TAP_TAPCELL_ROW_26_215
*1033 TAP_TAPCELL_ROW_26_216
*1034 TAP_TAPCELL_ROW_27_217
*1035 TAP_TAPCELL_ROW_27_218
*1036 TAP_TAPCELL_ROW_27_219
*1037 TAP_TAPCELL_ROW_27_220
*1038 TAP_TAPCELL_ROW_28_221
*1039 TAP_TAPCELL_ROW_28_222
*1040 TAP_TAPCELL_ROW_28_223
*1041 TAP_TAPCELL_ROW_28_224
*1042 TAP_TAPCELL_ROW_28_225
*1043 TAP_TAPCELL_ROW_29_226
*1044 TAP_TAPCELL_ROW_29_227
*1045 TAP_TAPCELL_ROW_29_228
*1046 TAP_TAPCELL_ROW_29_229
*1047 TAP_TAPCELL_ROW_2_104
*1048 TAP_TAPCELL_ROW_2_105
*1049 TAP_TAPCELL_ROW_2_106
*1050 TAP_TAPCELL_ROW_2_107
*1051 TAP_TAPCELL_ROW_2_108
*1052 TAP_TAPCELL_ROW_30_230
*1053 TAP_TAPCELL_ROW_30_231
*1054 TAP_TAPCELL_ROW_30_232
*1055 TAP_TAPCELL_ROW_30_233
*1056 TAP_TAPCELL_ROW_30_234
*1057 TAP_TAPCELL_ROW_31_235
*1058 TAP_TAPCELL_ROW_31_236
*1059 TAP_TAPCELL_ROW_31_237
*1060 TAP_TAPCELL_ROW_31_238
*1061 TAP_TAPCELL_ROW_32_239
*1062 TAP_TAPCELL_ROW_32_240
*1063 TAP_TAPCELL_ROW_32_241
*1064 TAP_TAPCELL_ROW_32_242
*1065 TAP_TAPCELL_ROW_32_243
*1066 TAP_TAPCELL_ROW_33_244
*1067 TAP_TAPCELL_ROW_33_245
*1068 TAP_TAPCELL_ROW_33_246
*1069 TAP_TAPCELL_ROW_33_247
*1070 TAP_TAPCELL_ROW_34_248
*1071 TAP_TAPCELL_ROW_34_249
*1072 TAP_TAPCELL_ROW_34_250
*1073 TAP_TAPCELL_ROW_34_251
*1074 TAP_TAPCELL_ROW_34_252
*1075 TAP_TAPCELL_ROW_35_253
*1076 TAP_TAPCELL_ROW_35_254
*1077 TAP_TAPCELL_ROW_35_255
*1078 TAP_TAPCELL_ROW_35_256
*1079 TAP_TAPCELL_ROW_36_257
*1080 TAP_TAPCELL_ROW_36_258
*1081 TAP_TAPCELL_ROW_36_259
*1082 TAP_TAPCELL_ROW_36_260
*1083 TAP_TAPCELL_ROW_36_261
*1084 TAP_TAPCELL_ROW_37_262
*1085 TAP_TAPCELL_ROW_37_263
*1086 TAP_TAPCELL_ROW_37_264
*1087 TAP_TAPCELL_ROW_37_265
*1088 TAP_TAPCELL_ROW_38_266
*1089 TAP_TAPCELL_ROW_38_267
*1090 TAP_TAPCELL_ROW_38_268
*1091 TAP_TAPCELL_ROW_38_269
*1092 TAP_TAPCELL_ROW_38_270
*1093 TAP_TAPCELL_ROW_39_271
*1094 TAP_TAPCELL_ROW_39_272
*1095 TAP_TAPCELL_ROW_39_273
*1096 TAP_TAPCELL_ROW_39_274
*1097 TAP_TAPCELL_ROW_3_109
*1098 TAP_TAPCELL_ROW_3_110
*1099 TAP_TAPCELL_ROW_3_111
*1100 TAP_TAPCELL_ROW_3_112
*1101 TAP_TAPCELL_ROW_40_275
*1102 TAP_TAPCELL_ROW_40_276
*1103 TAP_TAPCELL_ROW_40_277
*1104 TAP_TAPCELL_ROW_40_278
*1105 TAP_TAPCELL_ROW_40_279
*1106 TAP_TAPCELL_ROW_41_280
*1107 TAP_TAPCELL_ROW_41_281
*1108 TAP_TAPCELL_ROW_41_282
*1109 TAP_TAPCELL_ROW_41_283
*1110 TAP_TAPCELL_ROW_42_284
*1111 TAP_TAPCELL_ROW_42_285
*1112 TAP_TAPCELL_ROW_42_286
*1113 TAP_TAPCELL_ROW_42_287
*1114 TAP_TAPCELL_ROW_42_288
*1115 TAP_TAPCELL_ROW_43_289
*1116 TAP_TAPCELL_ROW_43_290
*1117 TAP_TAPCELL_ROW_43_291
*1118 TAP_TAPCELL_ROW_43_292
*1119 TAP_TAPCELL_ROW_44_293
*1120 TAP_TAPCELL_ROW_44_294
*1121 TAP_TAPCELL_ROW_44_295
*1122 TAP_TAPCELL_ROW_44_296
*1123 TAP_TAPCELL_ROW_44_297
*1124 TAP_TAPCELL_ROW_44_298
*1125 TAP_TAPCELL_ROW_44_299
*1126 TAP_TAPCELL_ROW_44_300
*1127 TAP_TAPCELL_ROW_44_301
*1128 TAP_TAPCELL_ROW_44_302
*1129 TAP_TAPCELL_ROW_4_113
*1130 TAP_TAPCELL_ROW_4_114
*1131 TAP_TAPCELL_ROW_4_115
*1132 TAP_TAPCELL_ROW_4_116
*1133 TAP_TAPCELL_ROW_4_117
*1134 TAP_TAPCELL_ROW_5_118
*1135 TAP_TAPCELL_ROW_5_119
*1136 TAP_TAPCELL_ROW_5_120
*1137 TAP_TAPCELL_ROW_5_121
*1138 TAP_TAPCELL_ROW_6_122
*1139 TAP_TAPCELL_ROW_6_123
*1140 TAP_TAPCELL_ROW_6_124
*1141 TAP_TAPCELL_ROW_6_125
*1142 TAP_TAPCELL_ROW_6_126
*1143 TAP_TAPCELL_ROW_7_127
*1144 TAP_TAPCELL_ROW_7_128
*1145 TAP_TAPCELL_ROW_7_129
*1146 TAP_TAPCELL_ROW_7_130
*1147 TAP_TAPCELL_ROW_8_131
*1148 TAP_TAPCELL_ROW_8_132
*1149 TAP_TAPCELL_ROW_8_133
*1150 TAP_TAPCELL_ROW_8_134
*1151 TAP_TAPCELL_ROW_8_135
*1152 TAP_TAPCELL_ROW_9_136
*1153 TAP_TAPCELL_ROW_9_137
*1154 TAP_TAPCELL_ROW_9_138
*1155 TAP_TAPCELL_ROW_9_139
*1156 _095_
*1157 _096_
*1158 _097_
*1159 _098_
*1160 _099_
*1161 _100_
*1162 _101_
*1163 _102_
*1164 _103_
*1165 _104_
*1166 _105_
*1167 _106_
*1168 _107_
*1169 _108_
*1170 _109_
*1171 _110_
*1172 _111_
*1173 _112_
*1174 _113_
*1175 _114_
*1176 _115_
*1177 _116_
*1178 _117_
*1179 _118_
*1180 _119_
*1181 _120_
*1182 _121_
*1183 _122_
*1184 _123_
*1185 _124_
*1186 _125_
*1187 _126_
*1188 _127_
*1189 _128_
*1190 _129_
*1191 _130_
*1192 _131_
*1193 _132_
*1194 _133_
*1195 _134_
*1196 _135_
*1197 _136_
*1198 _137_
*1199 _138_
*1200 _139_
*1201 _140_
*1202 _141_
*1203 _142_
*1204 _143_
*1205 _144_
*1206 _145_
*1207 _146_
*1208 _147_
*1209 _148_
*1210 _149_
*1211 _150_
*1212 _151_
*1213 _152_
*1214 _153_
*1215 _154_
*1216 _155_
*1217 _156_
*1218 _157_
*1219 _158_
*1220 _159_
*1221 _160_
*1222 _161_
*1223 _162_
*1224 _163_
*1225 _164_
*1226 _165_
*1227 _166_
*1228 _167_
*1229 _168_
*1230 _169_
*1231 _170_
*1232 _171_
*1233 _172_
*1234 _173_
*1235 _174_
*1236 _175_
*1237 _176_
*1238 _177_
*1239 _178_
*1240 _179_
*1241 _180_
*1242 _181_
*1243 _182_
*1244 _183_
*1245 _184_
*1246 _185_
*1247 _186_
*1248 _187_
*1249 _188_
*1250 _189_
*1251 _190_
*1252 _191_
*1253 _192_
*1254 _193_
*1255 _194_
*1256 _195_
*1257 _196_
*1258 _197_
*1259 _198_
*1260 _199_
*1261 _200_
*1262 _201_
*1263 _202_
*1264 _203_
*1265 _204_
*1266 _205_
*1267 _206_
*1268 _207_
*1269 _208_
*1270 _209_
*1271 _210_
*1272 _211_
*1273 _212_
*1274 _213_
*1275 _218_
*1276 _219_
*1277 clkbuf_0_clk
*1278 clkbuf_1_0__f_clk
*1279 clkbuf_1_1__f_clk
*1280 ita3_23
*1281 ita3_24
*1282 ita3_25
*1283 ita3_26
*1284 output1
*1285 output10
*1286 output11
*1287 output12
*1288 output13
*1289 output14
*1290 output15
*1291 output16
*1292 output17
*1293 output18
*1294 output19
*1295 output2
*1296 output20
*1297 output21
*1298 output22
*1299 output3
*1300 output4
*1301 output5
*1302 output6
*1303 output7
*1304 output8
*1305 output9

*PORTS
clk I
segm[0] O
segm[10] O
segm[11] O
segm[12] O
segm[13] O
segm[1] O
segm[2] O
segm[3] O
segm[4] O
segm[5] O
segm[6] O
segm[7] O
segm[8] O
segm[9] O
sel[0] O
sel[10] O
sel[11] O
sel[1] O
sel[2] O
sel[3] O
sel[4] O
sel[5] O
sel[6] O
sel[7] O
sel[8] O
sel[9] O

*D_NET *1 0.0159846
*CONN
*P clk I
*I *1277:I I *D gf180mcu_fd_sc_mcu7t5v0__clkbuf_16
*I *178:I I *D gf180mcu_fd_sc_mcu7t5v0__antenna
*CAP
1 clk 0.00328087
2 *1277:I 0.000301286
3 *178:I 0
4 *1:13 0.00358216
5 *1277:I *1176:A1 0
6 *1277:I *1201:A1 7.03065e-05
7 *1277:I *1203:A2 0.000499426
8 *1277:I *1215:B 0
9 *1277:I *95:10 0.000393153
10 *1277:I *119:8 0.000119878
11 *1277:I *122:10 9.49804e-05
12 *1:13 *1204:B 0.000101685
13 *1:13 *1214:A1 0.0010894
14 *1:13 *1214:A2 0.000593822
15 *1:13 *1215:A2 0.000893051
16 *1:13 *1215:B 0
17 *1:13 *1219:A1 0.000508741
18 *1:13 *1262:D 7.94868e-06
19 *1:13 *1286:I 0.000475078
20 *1:13 *1290:I 0.0031391
21 *1:13 *114:14 0.000583535
22 *1:13 *122:10 0.000203109
23 *1:13 *126:10 4.71078e-05
*RES
1 clk *1:13 45.045 
2 *1:13 *178:I 9 
3 *1:13 *1277:I 12.42 
*END

*D_NET *2 0.000949337
*CONN
*P segm[0] O
*I *1284:Z O *D gf180mcu_fd_sc_mcu7t5v0__buf_8
*CAP
1 segm[0] 0.000426282
2 *1284:Z 0.000426282
3 segm[0] segm[8] 9.67726e-05
*RES
1 *1284:Z segm[0] 12.195 
*END

*D_NET *3 0.000941763
*CONN
*P segm[10] O
*I *1295:Z O *D gf180mcu_fd_sc_mcu7t5v0__buf_8
*CAP
1 segm[10] 0.000422495
2 *1295:Z 0.000422495
3 segm[10] segm[9] 9.67726e-05
*RES
1 *1295:Z segm[10] 12.195 
*END

*D_NET *4 0.00190562
*CONN
*P segm[11] O
*I *1299:Z O *D gf180mcu_fd_sc_mcu7t5v0__buf_8
*CAP
1 segm[11] 0.000952812
2 *1299:Z 0.000952812
*RES
1 *1299:Z segm[11] 20.655 
*END

*D_NET *5 0.00186247
*CONN
*P segm[12] O
*I *1300:Z O *D gf180mcu_fd_sc_mcu7t5v0__buf_8
*CAP
1 segm[12] 0.000931233
2 *1300:Z 0.000931233
*RES
1 *1300:Z segm[12] 20.475 
*END

*D_NET *6 0.000485535
*CONN
*P segm[13] O
*I *1301:Z O *D gf180mcu_fd_sc_mcu7t5v0__buf_8
*CAP
1 segm[13] 0.000242767
2 *1301:Z 0.000242767
*RES
1 *1301:Z segm[13] 11.025 
*END

*D_NET *7 0.000756921
*CONN
*P segm[1] O
*I *1280:ZN O *D gf180mcu_fd_sc_mcu7t5v0__tiel
*CAP
1 segm[1] 0.000349896
2 *1280:ZN 0.000349896
3 segm[1] segm[9] 5.71292e-05
*RES
1 *1280:ZN segm[1] 11.655 
*END

*D_NET *8 0.000399217
*CONN
*P segm[2] O
*I *1281:ZN O *D gf180mcu_fd_sc_mcu7t5v0__tiel
*CAP
1 segm[2] 0.000199609
2 *1281:ZN 0.000199609
*RES
1 *1281:ZN segm[2] 10.665 
*END

*D_NET *9 0.00173299
*CONN
*P segm[3] O
*I *1302:Z O *D gf180mcu_fd_sc_mcu7t5v0__buf_8
*CAP
1 segm[3] 0.000866495
2 *1302:Z 0.000866495
*RES
1 *1302:Z segm[3] 19.935 
*END

*D_NET *10 0.00244369
*CONN
*P segm[4] O
*I *1282:ZN O *D gf180mcu_fd_sc_mcu7t5v0__tiel
*CAP
1 segm[4] 0.00111838
2 *1282:ZN 0.00111838
3 segm[4] sel[9] 0.000206932
*RES
1 *1282:ZN segm[4] 21.3163 
*END

*D_NET *11 0.000399217
*CONN
*P segm[5] O
*I *1283:ZN O *D gf180mcu_fd_sc_mcu7t5v0__tiel
*CAP
1 segm[5] 0.000199609
2 *1283:ZN 0.000199609
*RES
1 *1283:ZN segm[5] 10.665 
*END

*D_NET *12 0.00206383
*CONN
*P segm[6] O
*I *1303:Z O *D gf180mcu_fd_sc_mcu7t5v0__buf_8
*CAP