*SPEF "ieee 1481-1999"
*DESIGN "ita35"
*DATE "11:11:11 Fri 11 11, 1111"
*VENDOR "OpenRCX"
*PROGRAM "Parallel Extraction"
*VERSION "1.0"
*DESIGN_FLOW "NAME_SCOPE LOCAL" "PIN_CAP NONE"
*DIVIDER /
*DELIMITER :
*BUS_DELIMITER []
*T_UNIT 1 NS
*C_UNIT 1 PF
*R_UNIT 1 OHM
*L_UNIT 1 HENRY

*NAME_MAP
*1 clk
*2 net26
*3 segm[10]
*4 segm[11]
*5 segm[12]
*6 segm[13]
*7 segm[1]
*8 segm[2]
*9 segm[3]
*10 segm[4]
*11 segm[5]
*12 segm[6]
*13 segm[7]
*14 segm[8]
*15 segm[9]
*16 sel[0]
*17 sel[10]
*18 sel[11]
*19 sel[1]
*20 sel[2]
*21 sel[3]
*22 sel[4]
*23 sel[5]
*24 sel[6]
*25 sel[7]
*26 sel[8]
*27 sel[9]
*30 _000_
*31 _001_
*32 _002_
*33 _003_
*34 _004_
*35 _005_
*36 _006_
*37 _007_
*38 _008_
*39 _009_
*40 _010_
*41 _011_
*42 _012_
*43 _013_
*44 _014_
*45 _015_
*46 _016_
*47 _017_
*48 _018_
*49 _019_
*50 _020_
*51 _021_
*52 _022_
*53 _023_
*54 _024_
*55 _025_
*56 _026_
*57 _027_
*58 _028_
*59 _029_
*60 _030_
*61 _031_
*62 _032_
*63 _033_
*64 _034_
*65 _035_
*66 _036_
*67 _037_
*68 _038_
*69 _039_
*70 _040_
*71 _041_
*72 _042_
*73 _043_
*74 _044_
*75 _045_
*76 _046_
*77 _047_
*78 _048_
*79 _049_
*80 _050_
*81 _051_
*82 _052_
*83 _053_
*84 _054_
*85 _055_
*86 _056_
*87 _057_
*88 _058_
*89 _059_
*90 _060_
*91 _061_
*92 _062_
*93 _063_
*94 _064_
*95 _065_
*96 _066_
*97 _067_
*98 _068_
*99 _069_
*100 _070_
*101 _071_
*102 _072_
*103 _073_
*104 _074_
*105 _075_
*106 _076_
*107 _077_
*108 _078_
*109 _079_
*110 _080_
*111 _081_
*112 _082_
*113 _083_
*114 _084_
*115 _085_
*116 _086_
*117 _087_
*118 _088_
*119 _089_
*120 _090_
*121 _091_
*122 _092_
*123 _093_
*124 _094_
*125 _095_
*126 _096_
*127 _097_
*128 _098_
*129 _099_
*130 _100_
*131 _101_
*132 _102_
*133 _103_
*134 _104_
*135 _105_
*136 _106_
*137 _107_
*138 _108_
*139 _109_
*140 _110_
*141 clknet_0_clk
*142 clknet_1_0__leaf_clk
*143 clknet_1_1__leaf_clk
*144 dut35\.count\[0\]
*145 dut35\.count\[1\]
*146 dut35\.count\[2\]
*147 dut35\.count\[3\]
*148 net1
*149 net10
*150 net11
*151 net12
*152 net13
*153 net14
*154 net15
*155 net16
*156 net17
*157 net18
*158 net19
*159 net2
*160 net20
*161 net21
*162 net22
*163 net23
*164 net24
*165 net25
*166 net3
*167 net4
*168 net5
*169 net6
*170 net7
*171 net8
*172 net9
*173 ANTENNA__182__C
*174 ANTENNA__222__CLK
*175 ANTENNA__223__CLK
*176 ANTENNA__224__CLK
*177 ANTENNA__225__CLK
*178 ANTENNA__226__CLK
*179 ANTENNA__227__CLK
*180 ANTENNA__228__CLK
*181 ANTENNA__229__CLK
*182 ANTENNA__230__CLK
*183 ANTENNA__231__CLK
*184 ANTENNA__232__CLK
*185 ANTENNA__233__CLK
*186 ANTENNA__234__CLK
*187 ANTENNA__235__CLK
*188 ANTENNA__236__CLK
*189 ANTENNA__237__CLK
*190 ANTENNA__238__CLK
*191 ANTENNA__239__CLK
*192 ANTENNA__240__CLK
*193 ANTENNA__241__CLK
*194 ANTENNA__242__CLK
*195 ANTENNA__243__CLK
*196 ANTENNA__244__CLK
*197 ANTENNA__245__CLK
*198 ANTENNA__246__CLK
*199 ANTENNA__247__CLK
*200 ANTENNA_clkbuf_0_clk_I
*201 ANTENNA_output10_I
*202 FILLER_0_0_104
*203 FILLER_0_0_138
*204 FILLER_0_0_142
*205 FILLER_0_0_172
*206 FILLER_0_0_176
*207 FILLER_0_0_2
*208 FILLER_0_0_232
*209 FILLER_0_0_236
*210 FILLER_0_0_240
*211 FILLER_0_0_274
*212 FILLER_0_0_308
*213 FILLER_0_0_342
*214 FILLER_0_0_346
*215 FILLER_0_0_348
*216 FILLER_0_0_36
*217 FILLER_0_0_70
*218 FILLER_0_10_101
*219 FILLER_0_10_107
*220 FILLER_0_10_171
*221 FILLER_0_10_177
*222 FILLER_0_10_2
*223 FILLER_0_10_241
*224 FILLER_0_10_247
*225 FILLER_0_10_311
*226 FILLER_0_10_317
*227 FILLER_0_10_34
*228 FILLER_0_10_37
*229 FILLER_0_11_136
*230 FILLER_0_11_142
*231 FILLER_0_11_2
*232 FILLER_0_11_206
*233 FILLER_0_11_212
*234 FILLER_0_11_276
*235 FILLER_0_11_282
*236 FILLER_0_11_346
*237 FILLER_0_11_348
*238 FILLER_0_11_66
*239 FILLER_0_11_72
*240 FILLER_0_12_101
*241 FILLER_0_12_107
*242 FILLER_0_12_123
*243 FILLER_0_12_131
*244 FILLER_0_12_135
*245 FILLER_0_12_167
*246 FILLER_0_12_174
*247 FILLER_0_12_2
*248 FILLER_0_12_206
*249 FILLER_0_12_212
*250 FILLER_0_12_216
*251 FILLER_0_12_232
*252 FILLER_0_12_240
*253 FILLER_0_12_244
*254 FILLER_0_12_247
*255 FILLER_0_12_311
*256 FILLER_0_12_317
*257 FILLER_0_12_34
*258 FILLER_0_12_37
*259 FILLER_0_13_133
*260 FILLER_0_13_137
*261 FILLER_0_13_142
*262 FILLER_0_13_172
*263 FILLER_0_13_2
*264 FILLER_0_13_218
*265 FILLER_0_13_226
*266 FILLER_0_13_231
*267 FILLER_0_13_263
*268 FILLER_0_13_279
*269 FILLER_0_13_282
*270 FILLER_0_13_346
*271 FILLER_0_13_348
*272 FILLER_0_13_66
*273 FILLER_0_13_72
*274 FILLER_0_14_101
*275 FILLER_0_14_107
*276 FILLER_0_14_123
*277 FILLER_0_14_131
*278 FILLER_0_14_170
*279 FILLER_0_14_174
*280 FILLER_0_14_2
*281 FILLER_0_14_202
*282 FILLER_0_14_206
*283 FILLER_0_14_208
*284 FILLER_0_14_238
*285 FILLER_0_14_242
*286 FILLER_0_14_244
*287 FILLER_0_14_247
*288 FILLER_0_14_311
*289 FILLER_0_14_317
*290 FILLER_0_14_34
*291 FILLER_0_14_37
*292 FILLER_0_15_104
*293 FILLER_0_15_120
*294 FILLER_0_15_124
*295 FILLER_0_15_137
*296 FILLER_0_15_139
*297 FILLER_0_15_142
*298 FILLER_0_15_146
*299 FILLER_0_15_170
*300 FILLER_0_15_178
*301 FILLER_0_15_180
*302 FILLER_0_15_191
*303 FILLER_0_15_2
*304 FILLER_0_15_207
*305 FILLER_0_15_209
*306 FILLER_0_15_212
*307 FILLER_0_15_214
*308 FILLER_0_15_223
*309 FILLER_0_15_255
*310 FILLER_0_15_271
*311 FILLER_0_15_279
*312 FILLER_0_15_282
*313 FILLER_0_15_314
*314 FILLER_0_15_322
*315 FILLER_0_15_66
*316 FILLER_0_15_72
*317 FILLER_0_16_101
*318 FILLER_0_16_107
*319 FILLER_0_16_171
*320 FILLER_0_16_177
*321 FILLER_0_16_2
*322 FILLER_0_16_241
*323 FILLER_0_16_247
*324 FILLER_0_16_311
*325 FILLER_0_16_317
*326 FILLER_0_16_34
*327 FILLER_0_16_37
*328 FILLER_0_17_124
*329 FILLER_0_17_128
*330 FILLER_0_17_136
*331 FILLER_0_17_142
*332 FILLER_0_17_174
*333 FILLER_0_17_190
*334 FILLER_0_17_198
*335 FILLER_0_17_2
*336 FILLER_0_17_200
*337 FILLER_0_17_205
*338 FILLER_0_17_209
*339 FILLER_0_17_212
*340 FILLER_0_17_216
*341 FILLER_0_17_220
*342 FILLER_0_17_253
*343 FILLER_0_17_269
*344 FILLER_0_17_277
*345 FILLER_0_17_279
*346 FILLER_0_17_282
*347 FILLER_0_17_346
*348 FILLER_0_17_348
*349 FILLER_0_17_66
*350 FILLER_0_17_72
*351 FILLER_0_17_88
*352 FILLER_0_17_92
*353 FILLER_0_17_94
*354 FILLER_0_18_101
*355 FILLER_0_18_107
*356 FILLER_0_18_111
*357 FILLER_0_18_113
*358 FILLER_0_18_132
*359 FILLER_0_18_148
*360 FILLER_0_18_164
*361 FILLER_0_18_171
*362 FILLER_0_18_177
*363 FILLER_0_18_181
*364 FILLER_0_18_2
*365 FILLER_0_18_220
*366 FILLER_0_18_233
*367 FILLER_0_18_237
*368 FILLER_0_18_239
*369 FILLER_0_18_244
*370 FILLER_0_18_247
*371 FILLER_0_18_311
*372 FILLER_0_18_317
*373 FILLER_0_18_321
*374 FILLER_0_18_34
*375 FILLER_0_18_37
*376 FILLER_0_19_142
*377 FILLER_0_19_2
*378 FILLER_0_19_241
*379 FILLER_0_19_245
*380 FILLER_0_19_277
*381 FILLER_0_19_279
*382 FILLER_0_19_282
*383 FILLER_0_19_314
*384 FILLER_0_19_322
*385 FILLER_0_19_66
*386 FILLER_0_19_72
*387 FILLER_0_19_88
*388 FILLER_0_19_92
*389 FILLER_0_19_94
*390 FILLER_0_1_136
*391 FILLER_0_1_168
*392 FILLER_0_1_195
*393 FILLER_0_1_2
*394 FILLER_0_1_203
*395 FILLER_0_1_207
*396 FILLER_0_1_209
*397 FILLER_0_1_238
*398 FILLER_0_1_270
*399 FILLER_0_1_278
*400 FILLER_0_1_282
*401 FILLER_0_1_346
*402 FILLER_0_1_348
*403 FILLER_0_1_66
*404 FILLER_0_1_72
*405 FILLER_0_20_101
*406 FILLER_0_20_107
*407 FILLER_0_20_115
*408 FILLER_0_20_122
*409 FILLER_0_20_126
*410 FILLER_0_20_134
*411 FILLER_0_20_136
*412 FILLER_0_20_183
*413 FILLER_0_20_191
*414 FILLER_0_20_2
*415 FILLER_0_20_207
*416 FILLER_0_20_228
*417 FILLER_0_20_244
*418 FILLER_0_20_247
*419 FILLER_0_20_311
*420 FILLER_0_20_317
*421 FILLER_0_20_321
*422 FILLER_0_20_34
*423 FILLER_0_20_37
*424 FILLER_0_21_136
*425 FILLER_0_21_142
*426 FILLER_0_21_161
*427 FILLER_0_21_163
*428 FILLER_0_21_169
*429 FILLER_0_21_177
*430 FILLER_0_21_184
*431 FILLER_0_21_186
*432 FILLER_0_21_2
*433 FILLER_0_21_202
*434 FILLER_0_21_212
*435 FILLER_0_21_250
*436 FILLER_0_21_254
*437 FILLER_0_21_270
*438 FILLER_0_21_278
*439 FILLER_0_21_282
*440 FILLER_0_21_314
*441 FILLER_0_21_322
*442 FILLER_0_21_66
*443 FILLER_0_21_72
*444 FILLER_0_22_101
*445 FILLER_0_22_107
*446 FILLER_0_22_115
*447 FILLER_0_22_121
*448 FILLER_0_22_177
*449 FILLER_0_22_2
*450 FILLER_0_22_241
*451 FILLER_0_22_247
*452 FILLER_0_22_311
*453 FILLER_0_22_317
*454 FILLER_0_22_34
*455 FILLER_0_22_37
*456 FILLER_0_23_116
*457 FILLER_0_23_142
*458 FILLER_0_23_2
*459 FILLER_0_23_207
*460 FILLER_0_23_209
*461 FILLER_0_23_222
*462 FILLER_0_23_257
*463 FILLER_0_23_273
*464 FILLER_0_23_277
*465 FILLER_0_23_279
*466 FILLER_0_23_282
*467 FILLER_0_23_314
*468 FILLER_0_23_322
*469 FILLER_0_23_66
*470 FILLER_0_23_72
*471 FILLER_0_23_80
*472 FILLER_0_23_84
*473 FILLER_0_23_86
*474 FILLER_0_24_101
*475 FILLER_0_24_136
*476 FILLER_0_24_159
*477 FILLER_0_24_161
*478 FILLER_0_24_171
*479 FILLER_0_24_195
*480 FILLER_0_24_199
*481 FILLER_0_24_2
*482 FILLER_0_24_229
*483 FILLER_0_24_243
*484 FILLER_0_24_247
*485 FILLER_0_24_254
*486 FILLER_0_24_286
*487 FILLER_0_24_302
*488 FILLER_0_24_310
*489 FILLER_0_24_314
*490 FILLER_0_24_317
*491 FILLER_0_24_321
*492 FILLER_0_24_34
*493 FILLER_0_24_37
*494 FILLER_0_25_114
*495 FILLER_0_25_118
*496 FILLER_0_25_122
*497 FILLER_0_25_133
*498 FILLER_0_25_135
*499 FILLER_0_25_142
*500 FILLER_0_25_166
*501 FILLER_0_25_2
*502 FILLER_0_25_212
*503 FILLER_0_25_216
*504 FILLER_0_25_282
*505 FILLER_0_25_314
*506 FILLER_0_25_322
*507 FILLER_0_25_66
*508 FILLER_0_25_72
*509 FILLER_0_25_80
*510 FILLER_0_25_84
*511 FILLER_0_26_101
*512 FILLER_0_26_107
*513 FILLER_0_26_118
*514 FILLER_0_26_134
*515 FILLER_0_26_138
*516 FILLER_0_26_146
*517 FILLER_0_26_155
*518 FILLER_0_26_171
*519 FILLER_0_26_177
*520 FILLER_0_26_209
*521 FILLER_0_26_217
*522 FILLER_0_26_219
*523 FILLER_0_26_226
*524 FILLER_0_26_242
*525 FILLER_0_26_244
*526 FILLER_0_26_247
*527 FILLER_0_26_28
*528 FILLER_0_26_311
*529 FILLER_0_26_317
*530 FILLER_0_26_32
*531 FILLER_0_26_34
*532 FILLER_0_26_37
*533 FILLER_0_27_136
*534 FILLER_0_27_148
*535 FILLER_0_27_154
*536 FILLER_0_27_156
*537 FILLER_0_27_163
*538 FILLER_0_27_167
*539 FILLER_0_27_174
*540 FILLER_0_27_2
*541 FILLER_0_27_206
*542 FILLER_0_27_212
*543 FILLER_0_27_225
*544 FILLER_0_27_233
*545 FILLER_0_27_239
*546 FILLER_0_27_271
*547 FILLER_0_27_279
*548 FILLER_0_27_282
*549 FILLER_0_27_346
*550 FILLER_0_27_348
*551 FILLER_0_27_66
*552 FILLER_0_27_72
*553 FILLER_0_28_101
*554 FILLER_0_28_107
*555 FILLER_0_28_116
*556 FILLER_0_28_132
*557 FILLER_0_28_140
*558 FILLER_0_28_144
*559 FILLER_0_28_146
*560 FILLER_0_28_167
*561 FILLER_0_28_188
*562 FILLER_0_28_2
*563 FILLER_0_28_204
*564 FILLER_0_28_212
*565 FILLER_0_28_247
*566 FILLER_0_28_251
*567 FILLER_0_28_317
*568 FILLER_0_28_34
*569 FILLER_0_28_37
*570 FILLER_0_29_123
*571 FILLER_0_29_127
*572 FILLER_0_29_135
*573 FILLER_0_29_139
*574 FILLER_0_29_142
*575 FILLER_0_29_146
*576 FILLER_0_29_148
*577 FILLER_0_29_186
*578 FILLER_0_29_2
*579 FILLER_0_29_202
*580 FILLER_0_29_212
*581 FILLER_0_29_243
*582 FILLER_0_29_247
*583 FILLER_0_29_279
*584 FILLER_0_29_282
*585 FILLER_0_29_314
*586 FILLER_0_29_322
*587 FILLER_0_29_66
*588 FILLER_0_29_72
*589 FILLER_0_29_88
*590 FILLER_0_2_101
*591 FILLER_0_2_107
*592 FILLER_0_2_171
*593 FILLER_0_2_177
*594 FILLER_0_2_2
*595 FILLER_0_2_241
*596 FILLER_0_2_247
*597 FILLER_0_2_311
*598 FILLER_0_2_317
*599 FILLER_0_2_34
*600 FILLER_0_2_37
*601 FILLER_0_30_101
*602 FILLER_0_30_107
*603 FILLER_0_30_109
*604 FILLER_0_30_126
*605 FILLER_0_30_128
*606 FILLER_0_30_133
*607 FILLER_0_30_135
*608 FILLER_0_30_145
*609 FILLER_0_30_153
*610 FILLER_0_30_155
*611 FILLER_0_30_162
*612 FILLER_0_30_170
*613 FILLER_0_30_174
*614 FILLER_0_30_184
*615 FILLER_0_30_188
*616 FILLER_0_30_218
*617 FILLER_0_30_222
*618 FILLER_0_30_226
*619 FILLER_0_30_237
*620 FILLER_0_30_247
*621 FILLER_0_30_28
*622 FILLER_0_30_311
*623 FILLER_0_30_317
*624 FILLER_0_30_32
*625 FILLER_0_30_321
*626 FILLER_0_30_34
*627 FILLER_0_30_37
*628 FILLER_0_31_142
*629 FILLER_0_31_146
*630 FILLER_0_31_153
*631 FILLER_0_31_161
*632 FILLER_0_31_165
*633 FILLER_0_31_195
*634 FILLER_0_31_199
*635 FILLER_0_31_2
*636 FILLER_0_31_207
*637 FILLER_0_31_209
*638 FILLER_0_31_212
*639 FILLER_0_31_276
*640 FILLER_0_31_282
*641 FILLER_0_31_346
*642 FILLER_0_31_348
*643 FILLER_0_31_66
*644 FILLER_0_31_72
*645 FILLER_0_31_80
*646 FILLER_0_32_101
*647 FILLER_0_32_107
*648 FILLER_0_32_113
*649 FILLER_0_32_129
*650 FILLER_0_32_133
*651 FILLER_0_32_164
*652 FILLER_0_32_168
*653 FILLER_0_32_172
*654 FILLER_0_32_174
*655 FILLER_0_32_177
*656 FILLER_0_32_2
*657 FILLER_0_32_241
*658 FILLER_0_32_247
*659 FILLER_0_32_311
*660 FILLER_0_32_317
*661 FILLER_0_32_34
*662 FILLER_0_32_37
*663 FILLER_0_33_136
*664 FILLER_0_33_142
*665 FILLER_0_33_2
*666 FILLER_0_33_206
*667 FILLER_0_33_212
*668 FILLER_0_33_276
*669 FILLER_0_33_282
*670 FILLER_0_33_346
*671 FILLER_0_33_348
*672 FILLER_0_33_66
*673 FILLER_0_33_72
*674 FILLER_0_34_101
*675 FILLER_0_34_107
*676 FILLER_0_34_171
*677 FILLER_0_34_177
*678 FILLER_0_34_2
*679 FILLER_0_34_241
*680 FILLER_0_34_247
*681 FILLER_0_34_311
*682 FILLER_0_34_317
*683 FILLER_0_34_34
*684 FILLER_0_34_37
*685 FILLER_0_35_136
*686 FILLER_0_35_142
*687 FILLER_0_35_2
*688 FILLER_0_35_206
*689 FILLER_0_35_212
*690 FILLER_0_35_276
*691 FILLER_0_35_282
*692 FILLER_0_35_346
*693 FILLER_0_35_348
*694 FILLER_0_35_66
*695 FILLER_0_35_72
*696 FILLER_0_36_101
*697 FILLER_0_36_107
*698 FILLER_0_36_171
*699 FILLER_0_36_177
*700 FILLER_0_36_2
*701 FILLER_0_36_241
*702 FILLER_0_36_247
*703 FILLER_0_36_311
*704 FILLER_0_36_317
*705 FILLER_0_36_34
*706 FILLER_0_36_37
*707 FILLER_0_37_136
*708 FILLER_0_37_142
*709 FILLER_0_37_2
*710 FILLER_0_37_206
*711 FILLER_0_37_212
*712 FILLER_0_37_276
*713 FILLER_0_37_282
*714 FILLER_0_37_346
*715 FILLER_0_37_348
*716 FILLER_0_37_66
*717 FILLER_0_37_72
*718 FILLER_0_38_101
*719 FILLER_0_38_107
*720 FILLER_0_38_171
*721 FILLER_0_38_177
*722 FILLER_0_38_2
*723 FILLER_0_38_241
*724 FILLER_0_38_247
*725 FILLER_0_38_311
*726 FILLER_0_38_317
*727 FILLER_0_38_34
*728 FILLER_0_38_37
*729 FILLER_0_39_136
*730 FILLER_0_39_142
*731 FILLER_0_39_2
*732 FILLER_0_39_206
*733 FILLER_0_39_212
*734 FILLER_0_39_276
*735 FILLER_0_39_282
*736 FILLER_0_39_346
*737 FILLER_0_39_348
*738 FILLER_0_39_66
*739 FILLER_0_39_72
*740 FILLER_0_3_136
*741 FILLER_0_3_142
*742 FILLER_0_3_2
*743 FILLER_0_3_206
*744 FILLER_0_3_212
*745 FILLER_0_3_276
*746 FILLER_0_3_282
*747 FILLER_0_3_346
*748 FILLER_0_3_348
*749 FILLER_0_3_66
*750 FILLER_0_3_72
*751 FILLER_0_40_101
*752 FILLER_0_40_107
*753 FILLER_0_40_171
*754 FILLER_0_40_177
*755 FILLER_0_40_2
*756 FILLER_0_40_241
*757 FILLER_0_40_247
*758 FILLER_0_40_311
*759 FILLER_0_40_317
*760 FILLER_0_40_34
*761 FILLER_0_40_37
*762 FILLER_0_41_136
*763 FILLER_0_41_142
*764 FILLER_0_41_2
*765 FILLER_0_41_206
*766 FILLER_0_41_212
*767 FILLER_0_41_276
*768 FILLER_0_41_282
*769 FILLER_0_41_346
*770 FILLER_0_41_348
*771 FILLER_0_41_66
*772 FILLER_0_41_72
*773 FILLER_0_42_101
*774 FILLER_0_42_107
*775 FILLER_0_42_171
*776 FILLER_0_42_177
*777 FILLER_0_42_2
*778 FILLER_0_42_241
*779 FILLER_0_42_247
*780 FILLER_0_42_311
*781 FILLER_0_42_317
*782 FILLER_0_42_34
*783 FILLER_0_42_37
*784 FILLER_0_43_104
*785 FILLER_0_43_112
*786 FILLER_0_43_142
*787 FILLER_0_43_174
*788 FILLER_0_43_182
*789 FILLER_0_43_186
*790 FILLER_0_43_191
*791 FILLER_0_43_2
*792 FILLER_0_43_207
*793 FILLER_0_43_209
*794 FILLER_0_43_238
*795 FILLER_0_43_270
*796 FILLER_0_43_278
*797 FILLER_0_43_282
*798 FILLER_0_43_346
*799 FILLER_0_43_348
*800 FILLER_0_43_66
*801 FILLER_0_43_72
*802 FILLER_0_44_104
*803 FILLER_0_44_108
*804 FILLER_0_44_138
*805 FILLER_0_44_142
*806 FILLER_0_44_198
*807 FILLER_0_44_2
*808 FILLER_0_44_202
*809 FILLER_0_44_232
*810 FILLER_0_44_236
*811 FILLER_0_44_240
*812 FILLER_0_44_274
*813 FILLER_0_44_308
*814 FILLER_0_44_342
*815 FILLER_0_44_346
*816 FILLER_0_44_348
*817 FILLER_0_44_36
*818 FILLER_0_44_70
*819 FILLER_0_4_101
*820 FILLER_0_4_107
*821 FILLER_0_4_171
*822 FILLER_0_4_177
*823 FILLER_0_4_2
*824 FILLER_0_4_241
*825 FILLER_0_4_247
*826 FILLER_0_4_311
*827 FILLER_0_4_317
*828 FILLER_0_4_34
*829 FILLER_0_4_37
*830 FILLER_0_5_136
*831 FILLER_0_5_142
*832 FILLER_0_5_2
*833 FILLER_0_5_206
*834 FILLER_0_5_212
*835 FILLER_0_5_276
*836 FILLER_0_5_282
*837 FILLER_0_5_346
*838 FILLER_0_5_348
*839 FILLER_0_5_66
*840 FILLER_0_5_72
*841 FILLER_0_6_101
*842 FILLER_0_6_107
*843 FILLER_0_6_171
*844 FILLER_0_6_177
*845 FILLER_0_6_2
*846 FILLER_0_6_241
*847 FILLER_0_6_247
*848 FILLER_0_6_311
*849 FILLER_0_6_317
*850 FILLER_0_6_34
*851 FILLER_0_6_37
*852 FILLER_0_7_136
*853 FILLER_0_7_142
*854 FILLER_0_7_2
*855 FILLER_0_7_206
*856 FILLER_0_7_212
*857 FILLER_0_7_276
*858 FILLER_0_7_282
*859 FILLER_0_7_346
*860 FILLER_0_7_348
*861 FILLER_0_7_66
*862 FILLER_0_7_72
*863 FILLER_0_8_101
*864 FILLER_0_8_107
*865 FILLER_0_8_171
*866 FILLER_0_8_177
*867 FILLER_0_8_2
*868 FILLER_0_8_241
*869 FILLER_0_8_247
*870 FILLER_0_8_311
*871 FILLER_0_8_317
*872 FILLER_0_8_34
*873 FILLER_0_8_37
*874 FILLER_0_9_136
*875 FILLER_0_9_142
*876 FILLER_0_9_2
*877 FILLER_0_9_206
*878 FILLER_0_9_212
*879 FILLER_0_9_276
*880 FILLER_0_9_282
*881 FILLER_0_9_346
*882 FILLER_0_9_348
*883 FILLER_0_9_66
*884 FILLER_0_9_72
*885 PHY_EDGE_ROW_0_Left_45
*886 PHY_EDGE_ROW_0_Right_0
*887 PHY_EDGE_ROW_10_Left_55
*888 PHY_EDGE_ROW_10_Right_10
*889 PHY_EDGE_ROW_11_Left_56
*890 PHY_EDGE_ROW_11_Right_11
*891 PHY_EDGE_ROW_12_Left_57
*892 PHY_EDGE_ROW_12_Right_12
*893 PHY_EDGE_ROW_13_Left_58
*894 PHY_EDGE_ROW_13_Right_13
*895 PHY_EDGE_ROW_14_Left_59
*896 PHY_EDGE_ROW_14_Right_14
*897 PHY_EDGE_ROW_15_Left_60
*898 PHY_EDGE_ROW_15_Right_15
*899 PHY_EDGE_ROW_16_Left_61
*900 PHY_EDGE_ROW_16_Right_16
*901 PHY_EDGE_ROW_17_Left_62
*902 PHY_EDGE_ROW_17_Right_17
*903 PHY_EDGE_ROW_18_Left_63
*904 PHY_EDGE_ROW_18_Right_18
*905 PHY_EDGE_ROW_19_Left_64
*906 PHY_EDGE_ROW_19_Right_19
*907 PHY_EDGE_ROW_1_Left_46
*908 PHY_EDGE_ROW_1_Right_1
*909 PHY_EDGE_ROW_20_Left_65
*910 PHY_EDGE_ROW_20_Right_20
*911 PHY_EDGE_ROW_21_Left_66
*912 PHY_EDGE_ROW_21_Right_21
*913 PHY_EDGE_ROW_22_Left_67
*914 PHY_EDGE_ROW_22_Right_22
*915 PHY_EDGE_ROW_23_Left_68
*916 PHY_EDGE_ROW_23_Right_23
*917 PHY_EDGE_ROW_24_Left_69
*918 PHY_EDGE_ROW_24_Right_24
*919 PHY_EDGE_ROW_25_Left_70
*920 PHY_EDGE_ROW_25_Right_25
*921 PHY_EDGE_ROW_26_Left_71
*922 PHY_EDGE_ROW_26_Right_26
*923 PHY_EDGE_ROW_27_Left_72
*924 PHY_EDGE_ROW_27_Right_27
*925 PHY_EDGE_ROW_28_Left_73
*926 PHY_EDGE_ROW_28_Right_28
*927 PHY_EDGE_ROW_29_Left_74
*928 PHY_EDGE_ROW_29_Right_29
*929 PHY_EDGE_ROW_2_Left_47
*930 PHY_EDGE_ROW_2_Right_2
*931 PHY_EDGE_ROW_30_Left_75
*932 PHY_EDGE_ROW_30_Right_30
*933 PHY_EDGE_ROW_31_Left_76
*934 PHY_EDGE_ROW_31_Right_31
*935 PHY_EDGE_ROW_32_Left_77
*936 PHY_EDGE_ROW_32_Right_32
*937 PHY_EDGE_ROW_33_Left_78
*938 PHY_EDGE_ROW_33_Right_33
*939 PHY_EDGE_ROW_34_Left_79
*940 PHY_EDGE_ROW_34_Right_34
*941 PHY_EDGE_ROW_35_Left_80
*942 PHY_EDGE_ROW_35_Right_35
*943 PHY_EDGE_ROW_36_Left_81
*944 PHY_EDGE_ROW_36_Right_36
*945 PHY_EDGE_ROW_37_Left_82
*946 PHY_EDGE_ROW_37_Right_37
*947 PHY_EDGE_ROW_38_Left_83
*948 PHY_EDGE_ROW_38_Right_38
*949 PHY_EDGE_ROW_39_Left_84
*950 PHY_EDGE_ROW_39_Right_39
*951 PHY_EDGE_ROW_3_Left_48
*952 PHY_EDGE_ROW_3_Right_3
*953 PHY_EDGE_ROW_40_Left_85
*954 PHY_EDGE_ROW_40_Right_40
*955 PHY_EDGE_ROW_41_Left_86
*956 PHY_EDGE_ROW_41_Right_41
*957 PHY_EDGE_ROW_42_Left_87
*958 PHY_EDGE_ROW_42_Right_42
*959 PHY_EDGE_ROW_43_Left_88
*960 PHY_EDGE_ROW_43_Right_43
*961 PHY_EDGE_ROW_44_Left_89
*962 PHY_EDGE_ROW_44_Right_44
*963 PHY_EDGE_ROW_4_Left_49
*964 PHY_EDGE_ROW_4_Right_4
*965 PHY_EDGE_ROW_5_Left_50
*966 PHY_EDGE_ROW_5_Right_5
*967 PHY_EDGE_ROW_6_Left_51
*968 PHY_EDGE_ROW_6_Right_6
*969 PHY_EDGE_ROW_7_Left_52
*970 PHY_EDGE_ROW_7_Right_7
*971 PHY_EDGE_ROW_8_Left_53
*972 PHY_EDGE_ROW_8_Right_8
*973 PHY_EDGE_ROW_9_Left_54
*974 PHY_EDGE_ROW_9_Right_9
*975 TAP_TAPCELL_ROW_0_90
*976 TAP_TAPCELL_ROW_0_91
*977 TAP_TAPCELL_ROW_0_92
*978 TAP_TAPCELL_ROW_0_93
*979 TAP_TAPCELL_ROW_0_94
*980 TAP_TAPCELL_ROW_0_95
*981 TAP_TAPCELL_ROW_0_96
*982 TAP_TAPCELL_ROW_0_97
*983 TAP_TAPCELL_ROW_0_98
*984 TAP_TAPCELL_ROW_0_99
*985 TAP_TAPCELL_ROW_10_140
*986 TAP_TAPCELL_ROW_10_141
*987 TAP_TAPCELL_ROW_10_142
*988 TAP_TAPCELL_ROW_10_143
*989 TAP_TAPCELL_ROW_10_144
*990 TAP_TAPCELL_ROW_11_145
*991 TAP_TAPCELL_ROW_11_146
*992 TAP_TAPCELL_ROW_11_147
*993 TAP_TAPCELL_ROW_11_148
*994 TAP_TAPCELL_ROW_12_149
*995 TAP_TAPCELL_ROW_12_150
*996 TAP_TAPCELL_ROW_12_151
*997 TAP_TAPCELL_ROW_12_152
*998 TAP_TAPCELL_ROW_12_153
*999 TAP_TAPCELL_ROW_13_154
*1000 TAP_TAPCELL_ROW_13_155
*1001 TAP_TAPCELL_ROW_13_156
*1002 TAP_TAPCELL_ROW_13_157
*1003 TAP_TAPCELL_ROW_14_158
*1004 TAP_TAPCELL_ROW_14_159
*1005 TAP_TAPCELL_ROW_14_160
*1006 TAP_TAPCELL_ROW_14_161
*1007 TAP_TAPCELL_ROW_14_162
*1008 TAP_TAPCELL_ROW_15_163
*1009 TAP_TAPCELL_ROW_15_164
*1010 TAP_TAPCELL_ROW_15_165
*1011 TAP_TAPCELL_ROW_15_166
*1012 TAP_TAPCELL_ROW_16_167
*1013 TAP_TAPCELL_ROW_16_168
*1014 TAP_TAPCELL_ROW_16_169
*1015 TAP_TAPCELL_ROW_16_170
*1016 TAP_TAPCELL_ROW_16_171
*1017 TAP_TAPCELL_ROW_17_172
*1018 TAP_TAPCELL_ROW_17_173
*1019 TAP_TAPCELL_ROW_17_174
*1020 TAP_TAPCELL_ROW_17_175
*1021 TAP_TAPCELL_ROW_18_176
*1022 TAP_TAPCELL_ROW_18_177
*1023 TAP_TAPCELL_ROW_18_178
*1024 TAP_TAPCELL_ROW_18_179
*1025 TAP_TAPCELL_ROW_18_180
*1026 TAP_TAPCELL_ROW_19_181
*1027 TAP_TAPCELL_ROW_19_182
*1028 TAP_TAPCELL_ROW_19_183
*1029 TAP_TAPCELL_ROW_19_184
*1030 TAP_TAPCELL_ROW_1_100
*1031 TAP_TAPCELL_ROW_1_101
*1032 TAP_TAPCELL_ROW_1_102
*1033 TAP_TAPCELL_ROW_1_103
*1034 TAP_TAPCELL_ROW_20_185
*1035 TAP_TAPCELL_ROW_20_186
*1036 TAP_TAPCELL_ROW_20_187
*1037 TAP_TAPCELL_ROW_20_188
*1038 TAP_TAPCELL_ROW_20_189
*1039 TAP_TAPCELL_ROW_21_190
*1040 TAP_TAPCELL_ROW_21_191
*1041 TAP_TAPCELL_ROW_21_192
*1042 TAP_TAPCELL_ROW_21_193
*1043 TAP_TAPCELL_ROW_22_194
*1044 TAP_TAPCELL_ROW_22_195
*1045 TAP_TAPCELL_ROW_22_196
*1046 TAP_TAPCELL_ROW_22_197
*1047 TAP_TAPCELL_ROW_22_198
*1048 TAP_TAPCELL_ROW_23_199
*1049 TAP_TAPCELL_ROW_23_200
*1050 TAP_TAPCELL_ROW_23_201
*1051 TAP_TAPCELL_ROW_23_202
*1052 TAP_TAPCELL_ROW_24_203
*1053 TAP_TAPCELL_ROW_24_204
*1054 TAP_TAPCELL_ROW_24_205
*1055 TAP_TAPCELL_ROW_24_206
*1056 TAP_TAPCELL_ROW_24_207
*1057 TAP_TAPCELL_ROW_25_208
*1058 TAP_TAPCELL_ROW_25_209
*1059 TAP_TAPCELL_ROW_25_210
*1060 TAP_TAPCELL_ROW_25_211
*1061 TAP_TAPCELL_ROW_26_212
*1062 TAP_TAPCELL_ROW_26_213
*1063 TAP_TAPCELL_ROW_26_214
*1064 TAP_TAPCELL_ROW_26_215
*1065 TAP_TAPCELL_ROW_26_216
*1066 TAP_TAPCELL_ROW_27_217
*1067 TAP_TAPCELL_ROW_27_218
*1068 TAP_TAPCELL_ROW_27_219
*1069 TAP_TAPCELL_ROW_27_220
*1070 TAP_TAPCELL_ROW_28_221
*1071 TAP_TAPCELL_ROW_28_222
*1072 TAP_TAPCELL_ROW_28_223
*1073 TAP_TAPCELL_ROW_28_224
*1074 TAP_TAPCELL_ROW_28_225
*1075 TAP_TAPCELL_ROW_29_226
*1076 TAP_TAPCELL_ROW_29_227
*1077 TAP_TAPCELL_ROW_29_228
*1078 TAP_TAPCELL_ROW_29_229
*1079 TAP_TAPCELL_ROW_2_104
*1080 TAP_TAPCELL_ROW_2_105
*1081 TAP_TAPCELL_ROW_2_106
*1082 TAP_TAPCELL_ROW_2_107
*1083 TAP_TAPCELL_ROW_2_108
*1084 TAP_TAPCELL_ROW_30_230
*1085 TAP_TAPCELL_ROW_30_231
*1086 TAP_TAPCELL_ROW_30_232
*1087 TAP_TAPCELL_ROW_30_233
*1088 TAP_TAPCELL_ROW_30_234
*1089 TAP_TAPCELL_ROW_31_235
*1090 TAP_TAPCELL_ROW_31_236
*1091 TAP_TAPCELL_ROW_31_237
*1092 TAP_TAPCELL_ROW_31_238
*1093 TAP_TAPCELL_ROW_32_239
*1094 TAP_TAPCELL_ROW_32_240
*1095 TAP_TAPCELL_ROW_32_241
*1096 TAP_TAPCELL_ROW_32_242
*1097 TAP_TAPCELL_ROW_32_243
*1098 TAP_TAPCELL_ROW_33_244
*1099 TAP_TAPCELL_ROW_33_245
*1100 TAP_TAPCELL_ROW_33_246
*1101 TAP_TAPCELL_ROW_33_247
*1102 TAP_TAPCELL_ROW_34_248
*1103 TAP_TAPCELL_ROW_34_249
*1104 TAP_TAPCELL_ROW_34_250
*1105 TAP_TAPCELL_ROW_34_251
*1106 TAP_TAPCELL_ROW_34_252
*1107 TAP_TAPCELL_ROW_35_253
*1108 TAP_TAPCELL_ROW_35_254
*1109 TAP_TAPCELL_ROW_35_255
*1110 TAP_TAPCELL_ROW_35_256
*1111 TAP_TAPCELL_ROW_36_257
*1112 TAP_TAPCELL_ROW_36_258
*1113 TAP_TAPCELL_ROW_36_259
*1114 TAP_TAPCELL_ROW_36_260
*1115 TAP_TAPCELL_ROW_36_261
*1116 TAP_TAPCELL_ROW_37_262
*1117 TAP_TAPCELL_ROW_37_263
*1118 TAP_TAPCELL_ROW_37_264
*1119 TAP_TAPCELL_ROW_37_265
*1120 TAP_TAPCELL_ROW_38_266
*1121 TAP_TAPCELL_ROW_38_267
*1122 TAP_TAPCELL_ROW_38_268
*1123 TAP_TAPCELL_ROW_38_269
*1124 TAP_TAPCELL_ROW_38_270
*1125 TAP_TAPCELL_ROW_39_271
*1126 TAP_TAPCELL_ROW_39_272
*1127 TAP_TAPCELL_ROW_39_273
*1128 TAP_TAPCELL_ROW_39_274
*1129 TAP_TAPCELL_ROW_3_109
*1130 TAP_TAPCELL_ROW_3_110
*1131 TAP_TAPCELL_ROW_3_111
*1132 TAP_TAPCELL_ROW_3_112
*1133 TAP_TAPCELL_ROW_40_275
*1134 TAP_TAPCELL_ROW_40_276
*1135 TAP_TAPCELL_ROW_40_277
*1136 TAP_TAPCELL_ROW_40_278
*1137 TAP_TAPCELL_ROW_40_279
*1138 TAP_TAPCELL_ROW_41_280
*1139 TAP_TAPCELL_ROW_41_281
*1140 TAP_TAPCELL_ROW_41_282
*1141 TAP_TAPCELL_ROW_41_283
*1142 TAP_TAPCELL_ROW_42_284
*1143 TAP_TAPCELL_ROW_42_285
*1144 TAP_TAPCELL_ROW_42_286
*1145 TAP_TAPCELL_ROW_42_287
*1146 TAP_TAPCELL_ROW_42_288
*1147 TAP_TAPCELL_ROW_43_289
*1148 TAP_TAPCELL_ROW_43_290
*1149 TAP_TAPCELL_ROW_43_291
*1150 TAP_TAPCELL_ROW_43_292
*1151 TAP_TAPCELL_ROW_44_293
*1152 TAP_TAPCELL_ROW_44_294
*1153 TAP_TAPCELL_ROW_44_295
*1154 TAP_TAPCELL_ROW_44_296
*1155 TAP_TAPCELL_ROW_44_297
*1156 TAP_TAPCELL_ROW_44_298
*1157 TAP_TAPCELL_ROW_44_299
*1158 TAP_TAPCELL_ROW_44_300
*1159 TAP_TAPCELL_ROW_44_301
*1160 TAP_TAPCELL_ROW_44_302
*1161 TAP_TAPCELL_ROW_4_113
*1162 TAP_TAPCELL_ROW_4_114
*1163 TAP_TAPCELL_ROW_4_115
*1164 TAP_TAPCELL_ROW_4_116
*1165 TAP_TAPCELL_ROW_4_117
*1166 TAP_TAPCELL_ROW_5_118
*1167 TAP_TAPCELL_ROW_5_119
*1168 TAP_TAPCELL_ROW_5_120
*1169 TAP_TAPCELL_ROW_5_121
*1170 TAP_TAPCELL_ROW_6_122
*1171 TAP_TAPCELL_ROW_6_123
*1172 TAP_TAPCELL_ROW_6_124
*1173 TAP_TAPCELL_ROW_6_125
*1174 TAP_TAPCELL_ROW_6_126
*1175 TAP_TAPCELL_ROW_7_127
*1176 TAP_TAPCELL_ROW_7_128
*1177 TAP_TAPCELL_ROW_7_129
*1178 TAP_TAPCELL_ROW_7_130
*1179 TAP_TAPCELL_ROW_8_131
*1180 TAP_TAPCELL_ROW_8_132
*1181 TAP_TAPCELL_ROW_8_133
*1182 TAP_TAPCELL_ROW_8_134
*1183 TAP_TAPCELL_ROW_8_135
*1184 TAP_TAPCELL_ROW_9_136
*1185 TAP_TAPCELL_ROW_9_137
*1186 TAP_TAPCELL_ROW_9_138
*1187 TAP_TAPCELL_ROW_9_139
*1188 _111_
*1189 _112_
*1190 _113_
*1191 _114_
*1192 _115_
*1193 _116_
*1194 _117_
*1195 _118_
*1196 _119_
*1197 _120_
*1198 _121_
*1199 _122_
*1200 _123_
*1201 _124_
*1202 _125_
*1203 _126_
*1204 _127_
*1205 _128_
*1206 _129_
*1207 _130_
*1208 _131_
*1209 _132_
*1210 _133_
*1211 _134_
*1212 _135_
*1213 _136_
*1214 _137_
*1215 _138_
*1216 _139_
*1217 _140_
*1218 _141_
*1219 _142_
*1220 _143_
*1221 _144_
*1222 _145_
*1223 _146_
*1224 _147_
*1225 _148_
*1226 _149_
*1227 _150_
*1228 _151_
*1229 _152_
*1230 _153_
*1231 _154_
*1232 _155_
*1233 _156_
*1234 _157_
*1235 _158_
*1236 _159_
*1237 _160_
*1238 _161_
*1239 _162_
*1240 _163_
*1241 _164_
*1242 _165_
*1243 _166_
*1244 _167_
*1245 _168_
*1246 _169_
*1247 _170_
*1248 _171_
*1249 _172_
*1250 _173_
*1251 _174_
*1252 _175_
*1253 _176_
*1254 _177_
*1255 _178_
*1256 _179_
*1257 _180_
*1258 _181_
*1259 _182_
*1260 _183_
*1261 _184_
*1262 _185_
*1263 _186_
*1264 _187_
*1265 _188_
*1266 _189_
*1267 _190_
*1268 _191_
*1269 _192_
*1270 _193_
*1271 _194_
*1272 _195_
*1273 _196_
*1274 _197_
*1275 _198_
*1276 _199_
*1277 _200_
*1278 _201_
*1279 _202_
*1280 _203_
*1281 _204_
*1282 _205_
*1283 _206_
*1284 _207_
*1285 _208_
*1286 _209_
*1287 _210_
*1288 _211_
*1289 _212_
*1290 _213_
*1291 _214_
*1292 _215_
*1293 _216_
*1294 _217_
*1295 _218_
*1296 _219_
*1297 _220_
*1298 _221_
*1299 _222_
*1300 _223_
*1301 _224_
*1302 _225_
*1303 _226_
*1304 _227_
*1305 _228_
*1306 _229_
*1307 _230_
*1308 _231_
*1309 _232_
*1310 _233_
*1311 _234_
*1312 _235_
*1313 _236_
*1314 _237_
*1315 _238_
*1316 _239_
*1317 _240_
*1318 _241_
*1319 _242_
*1320 _243_
*1321 _244_
*1322 _245_
*1323 _246_
*1324 _247_
*1325 _249_
*1326 _250_
*1327 _251_
*1328 clkbuf_0_clk
*1329 clkbuf_1_0__f_clk
*1330 clkbuf_1_1__f_clk
*1331 ita35_26
*1332 output1
*1333 output10
*1334 output11
*1335 output12
*1336 output13
*1337 output14
*1338 output15
*1339 output16
*1340 output17
*1341 output18
*1342 output19
*1343 output2
*1344 output20
*1345 output21
*1346 output22
*1347 output23
*1348 output24
*1349 output25
*1350 output3
*1351 output4
*1352 output5
*1353 output6
*1354 output7
*1355 output8
*1356 output9

*PORTS
clk I
segm[0] O
segm[10] O
segm[11] O
segm[12] O
segm[13] O
segm[1] O
segm[2] O
segm[3] O
segm[4] O
segm[5] O
segm[6] O
segm[7] O
segm[8] O
segm[9] O
sel[0] O
sel[10] O
sel[11] O
sel[1] O
sel[2] O
sel[3] O
sel[4] O
sel[5] O
sel[6] O
sel[7] O
sel[8] O
sel[9] O

*D_NET *1 0.0144974
*CONN
*P clk I
*I *200:I I *D gf180mcu_fd_sc_mcu7t5v0__antenna
*I *1328:I I *D gf180mcu_fd_sc_mcu7t5v0__clkbuf_16
*CAP
1 clk 0.00453931
2 *200:I 0.000371316
3 *1328:I 6.16417e-05
4 *1:17 0.00497227
5 *200:I *1201:A1 5.34551e-05
6 *200:I *1304:D 0
7 *200:I *114:10 7.10835e-05
8 *200:I *139:10 0.000412035
9 *1328:I *1233:A1 0.000416312
10 *1328:I *107:18 0.000479291
11 *1:17 *1192:I 1.47172e-05
12 *1:17 *1201:A1 1.7368e-05
13 *1:17 *1225:A1 0.000461424
14 *1:17 *1242:A2 0.000455766
15 *1:17 *1304:D 0
16 *1:17 *1304:CLK 0.000377046
17 *1:17 *1342:I 0.000586561
18 *1:17 *1347:I 0
19 *1:17 *112:8 0.00011555
20 *1:17 *112:19 7.94868e-06
21 *1:17 *112:30 7.95552e-06
22 *1:17 *122:10 0.000275273
23 *1:17 *135:20 0.000655146
24 *1:17 *139:10 7.77106e-05
25 *1:17 *142:122 6.82317e-05
26 *1:17 *146:10 0
*RES
1 clk *1:17 47.385 
2 *1:17 *1328:I 10.35 
3 *1:17 *200:I 11.79 
*END

*D_NET *2 0.00182752
*CONN
*P segm[0] O
*I *1331:ZN O *D gf180mcu_fd_sc_mcu7t5v0__tiel
*CAP
1 segm[0] 0.000844383
2 *1331:ZN 0.000844383
3 segm[0] sel[5] 0.00013875
*RES
1 *1331:ZN segm[0] 11.115 
*END

*D_NET *3 0.000655371
*CONN
*P segm[10] O
*I *1332:Z O *D gf180mcu_fd_sc_mcu7t5v0__buf_8
*CAP
1 segm[10] 0.000294374
2 *1332:Z 0.000294374
3 segm[10] sel[2] 6.66239e-05
*RES
1 *1332:Z segm[10] 11.475 
*END

*D_NET *4 0.000808564
*CONN
*P segm[11] O
*I *1343:Z O *D gf180mcu_fd_sc_mcu7t5v0__buf_8
*CAP
1 segm[11] 0.000404282
2 *1343:Z 0.000404282
*RES
1 *1343:Z segm[11] 11.655 
*END

*D_NET *5 0.00117855
*CONN
*P segm[12] O
*I *1350:Z O *D gf180mcu_fd_sc_mcu7t5v0__buf_8
*CAP
1 segm[12] 0.000589274
2 *1350:Z 0.000589274
*RES
1 *1350:Z segm[12] 8.865 
*END

*D_NET *6 0.00233052
*CONN
*P segm[13] O
*I *1351:Z O *D gf180mcu_fd_sc_mcu7t5v0__buf_8
*CAP
1 segm[13] 0.00111532
2 *1351:Z 0.00111532
3 segm[13] sel[5] 0
4 segm[13] *1345:I 9.98816e-05
*RES
1 *1351:Z segm[13] 21.915 
*END

*D_NET *7 0.000785625
*CONN
*P segm[1] O
*I *1352:Z O *D gf180mcu_fd_sc_mcu7t5v0__buf_8
*CAP
1 segm[1] 0.000328597