*SPEF "ieee 1481-1999"
*DESIGN "ita33"
*DATE "11:11:11 Fri 11 11, 1111"
*VENDOR "OpenRCX"
*PROGRAM "Parallel Extraction"
*VERSION "1.0"
*DESIGN_FLOW "NAME_SCOPE LOCAL" "PIN_CAP NONE"
*DIVIDER /
*DELIMITER :
*BUS_DELIMITER []
*T_UNIT 1 NS
*C_UNIT 1 PF
*R_UNIT 1 OHM
*L_UNIT 1 HENRY

*NAME_MAP
*1 clk
*2 net26
*3 segm[10]
*4 segm[11]
*5 segm[12]
*6 segm[13]
*7 segm[1]
*8 segm[2]
*9 segm[3]
*10 segm[4]
*11 segm[5]
*12 segm[6]
*13 segm[7]
*14 segm[8]
*15 segm[9]
*16 sel[0]
*17 sel[10]
*18 sel[11]
*19 sel[1]
*20 sel[2]
*21 sel[3]
*22 sel[4]
*23 sel[5]
*24 sel[6]
*25 sel[7]
*26 sel[8]
*27 sel[9]
*30 _000_
*31 _001_
*32 _002_
*33 _003_
*34 _004_
*35 _005_
*36 _006_
*37 _007_
*38 _008_
*39 _009_
*40 _010_
*41 _011_
*42 _012_
*43 _013_
*44 _014_
*45 _015_
*46 _016_
*47 _017_
*48 _018_
*49 _019_
*50 _020_
*51 _021_
*52 _022_
*53 _023_
*54 _024_
*55 _025_
*56 _026_
*57 _027_
*58 _028_
*59 _029_
*60 _030_
*61 _031_
*62 _032_
*63 _033_
*64 _034_
*65 _035_
*66 _036_
*67 _037_
*68 _038_
*69 _039_
*70 _040_
*71 _041_
*72 _042_
*73 _043_
*74 _044_
*75 _045_
*76 _046_
*77 _047_
*78 _048_
*79 _049_
*80 _050_
*81 _051_
*82 _052_
*83 _053_
*84 _054_
*85 _055_
*86 _056_
*87 _057_
*88 _058_
*89 _059_
*90 _060_
*91 _061_
*92 _062_
*93 _063_
*94 _064_
*95 _065_
*96 _066_
*97 _067_
*98 _068_
*99 _069_
*100 _070_
*101 _071_
*102 _072_
*103 _073_
*104 _074_
*105 _075_
*106 _076_
*107 _077_
*108 _078_
*109 _079_
*110 _080_
*111 _081_
*112 _082_
*113 _083_
*114 _084_
*115 _085_
*116 _086_
*117 _087_
*118 _088_
*119 _089_
*120 _090_
*121 _091_
*122 _092_
*123 _093_
*124 _094_
*125 _095_
*126 _096_
*127 _097_
*128 _098_
*129 _099_
*130 _100_
*131 _101_
*132 _102_
*133 clknet_0_clk
*134 clknet_1_0__leaf_clk
*135 clknet_1_1__leaf_clk
*136 dut33\.count\[0\]
*137 dut33\.count\[1\]
*138 dut33\.count\[2\]
*139 dut33\.count\[3\]
*140 net1
*141 net10
*142 net11
*143 net12
*144 net13
*145 net14
*146 net15
*147 net16
*148 net17
*149 net18
*150 net19
*151 net2
*152 net20
*153 net21
*154 net22
*155 net23
*156 net24
*157 net25
*158 net3
*159 net4
*160 net5
*161 net6
*162 net7
*163 net8
*164 net9
*165 ANTENNA__206__CLK
*166 ANTENNA__207__CLK
*167 ANTENNA__208__CLK
*168 ANTENNA__209__CLK
*169 ANTENNA__210__CLK
*170 ANTENNA__211__CLK
*171 ANTENNA__212__CLK
*172 ANTENNA__213__CLK
*173 ANTENNA__214__CLK
*174 ANTENNA__215__CLK
*175 ANTENNA__216__CLK
*176 ANTENNA__217__CLK
*177 ANTENNA__218__CLK
*178 ANTENNA__219__CLK
*179 ANTENNA__220__CLK
*180 ANTENNA__221__CLK
*181 ANTENNA__222__CLK
*182 ANTENNA__223__CLK
*183 ANTENNA__224__CLK
*184 ANTENNA__225__CLK
*185 ANTENNA__226__CLK
*186 ANTENNA__227__CLK
*187 ANTENNA__228__CLK
*188 ANTENNA__229__CLK
*189 ANTENNA__230__CLK
*190 ANTENNA__231__CLK
*191 ANTENNA_clkbuf_0_clk_I
*192 FILLER_0_0_104
*193 FILLER_0_0_138
*194 FILLER_0_0_165
*195 FILLER_0_0_169
*196 FILLER_0_0_172
*197 FILLER_0_0_2
*198 FILLER_0_0_232
*199 FILLER_0_0_236
*200 FILLER_0_0_240
*201 FILLER_0_0_274
*202 FILLER_0_0_312
*203 FILLER_0_0_328
*204 FILLER_0_0_336
*205 FILLER_0_0_342
*206 FILLER_0_0_346
*207 FILLER_0_0_348
*208 FILLER_0_0_36
*209 FILLER_0_0_70
*210 FILLER_0_10_101
*211 FILLER_0_10_107
*212 FILLER_0_10_171
*213 FILLER_0_10_177
*214 FILLER_0_10_2
*215 FILLER_0_10_241
*216 FILLER_0_10_247
*217 FILLER_0_10_311
*218 FILLER_0_10_317
*219 FILLER_0_10_34
*220 FILLER_0_10_37
*221 FILLER_0_11_136
*222 FILLER_0_11_142
*223 FILLER_0_11_2
*224 FILLER_0_11_206
*225 FILLER_0_11_212
*226 FILLER_0_11_276
*227 FILLER_0_11_282
*228 FILLER_0_11_346
*229 FILLER_0_11_348
*230 FILLER_0_11_66
*231 FILLER_0_11_72
*232 FILLER_0_12_101
*233 FILLER_0_12_107
*234 FILLER_0_12_123
*235 FILLER_0_12_127
*236 FILLER_0_12_157
*237 FILLER_0_12_161
*238 FILLER_0_12_169
*239 FILLER_0_12_173
*240 FILLER_0_12_177
*241 FILLER_0_12_2
*242 FILLER_0_12_208
*243 FILLER_0_12_212
*244 FILLER_0_12_244
*245 FILLER_0_12_247
*246 FILLER_0_12_311
*247 FILLER_0_12_317
*248 FILLER_0_12_34
*249 FILLER_0_12_37
*250 FILLER_0_13_104
*251 FILLER_0_13_108
*252 FILLER_0_13_110
*253 FILLER_0_13_142
*254 FILLER_0_13_146
*255 FILLER_0_13_158
*256 FILLER_0_13_174
*257 FILLER_0_13_178
*258 FILLER_0_13_180
*259 FILLER_0_13_2
*260 FILLER_0_13_212
*261 FILLER_0_13_216
*262 FILLER_0_13_282
*263 FILLER_0_13_346
*264 FILLER_0_13_348
*265 FILLER_0_13_66
*266 FILLER_0_13_72
*267 FILLER_0_14_101
*268 FILLER_0_14_107
*269 FILLER_0_14_123
*270 FILLER_0_14_133
*271 FILLER_0_14_143
*272 FILLER_0_14_145
*273 FILLER_0_14_177
*274 FILLER_0_14_181
*275 FILLER_0_14_185
*276 FILLER_0_14_2
*277 FILLER_0_14_220
*278 FILLER_0_14_224
*279 FILLER_0_14_240
*280 FILLER_0_14_244
*281 FILLER_0_14_247
*282 FILLER_0_14_311
*283 FILLER_0_14_317
*284 FILLER_0_14_34
*285 FILLER_0_14_37
*286 FILLER_0_15_104
*287 FILLER_0_15_120
*288 FILLER_0_15_128
*289 FILLER_0_15_132
*290 FILLER_0_15_148
*291 FILLER_0_15_180
*292 FILLER_0_15_188
*293 FILLER_0_15_190
*294 FILLER_0_15_2
*295 FILLER_0_15_207
*296 FILLER_0_15_209
*297 FILLER_0_15_212
*298 FILLER_0_15_276
*299 FILLER_0_15_282
*300 FILLER_0_15_346
*301 FILLER_0_15_348
*302 FILLER_0_15_66
*303 FILLER_0_15_72
*304 FILLER_0_16_101
*305 FILLER_0_16_136
*306 FILLER_0_16_140
*307 FILLER_0_16_156
*308 FILLER_0_16_164
*309 FILLER_0_16_173
*310 FILLER_0_16_177
*311 FILLER_0_16_185
*312 FILLER_0_16_189
*313 FILLER_0_16_199
*314 FILLER_0_16_2
*315 FILLER_0_16_230
*316 FILLER_0_16_234
*317 FILLER_0_16_242
*318 FILLER_0_16_244
*319 FILLER_0_16_247
*320 FILLER_0_16_311
*321 FILLER_0_16_317
*322 FILLER_0_16_34
*323 FILLER_0_16_37
*324 FILLER_0_17_104
*325 FILLER_0_17_128
*326 FILLER_0_17_132
*327 FILLER_0_17_139
*328 FILLER_0_17_142
*329 FILLER_0_17_150
*330 FILLER_0_17_154
*331 FILLER_0_17_156
*332 FILLER_0_17_175
*333 FILLER_0_17_183
*334 FILLER_0_17_191
*335 FILLER_0_17_2
*336 FILLER_0_17_201
*337 FILLER_0_17_209
*338 FILLER_0_17_212
*339 FILLER_0_17_259
*340 FILLER_0_17_275
*341 FILLER_0_17_279
*342 FILLER_0_17_282
*343 FILLER_0_17_346
*344 FILLER_0_17_348
*345 FILLER_0_17_66
*346 FILLER_0_17_72
*347 FILLER_0_18_101
*348 FILLER_0_18_107
*349 FILLER_0_18_115
*350 FILLER_0_18_119
*351 FILLER_0_18_121
*352 FILLER_0_18_128
*353 FILLER_0_18_136
*354 FILLER_0_18_174
*355 FILLER_0_18_2
*356 FILLER_0_18_227
*357 FILLER_0_18_239
*358 FILLER_0_18_243
*359 FILLER_0_18_252
*360 FILLER_0_18_284
*361 FILLER_0_18_300
*362 FILLER_0_18_308
*363 FILLER_0_18_312
*364 FILLER_0_18_314
*365 FILLER_0_18_317
*366 FILLER_0_18_321
*367 FILLER_0_18_34
*368 FILLER_0_18_37
*369 FILLER_0_19_100
*370 FILLER_0_19_108
*371 FILLER_0_19_110
*372 FILLER_0_19_142
*373 FILLER_0_19_183
*374 FILLER_0_19_191
*375 FILLER_0_19_207
*376 FILLER_0_19_209
*377 FILLER_0_19_222
*378 FILLER_0_19_257
*379 FILLER_0_19_273
*380 FILLER_0_19_277
*381 FILLER_0_19_279
*382 FILLER_0_19_28
*383 FILLER_0_19_282
*384 FILLER_0_19_314
*385 FILLER_0_19_322
*386 FILLER_0_19_60
*387 FILLER_0_19_68
*388 FILLER_0_19_72
*389 FILLER_0_19_88
*390 FILLER_0_19_96
*391 FILLER_0_1_136
*392 FILLER_0_1_142
*393 FILLER_0_1_150
*394 FILLER_0_1_154
*395 FILLER_0_1_156
*396 FILLER_0_1_183
*397 FILLER_0_1_199
*398 FILLER_0_1_2
*399 FILLER_0_1_207
*400 FILLER_0_1_209
*401 FILLER_0_1_238
*402 FILLER_0_1_270
*403 FILLER_0_1_278
*404 FILLER_0_1_282
*405 FILLER_0_1_346
*406 FILLER_0_1_348
*407 FILLER_0_1_66
*408 FILLER_0_1_72
*409 FILLER_0_20_107
*410 FILLER_0_20_114
*411 FILLER_0_20_118
*412 FILLER_0_20_131
*413 FILLER_0_20_139
*414 FILLER_0_20_142
*415 FILLER_0_20_174
*416 FILLER_0_20_183
*417 FILLER_0_20_191
*418 FILLER_0_20_200
*419 FILLER_0_20_232
*420 FILLER_0_20_242
*421 FILLER_0_20_244
*422 FILLER_0_20_252
*423 FILLER_0_20_28
*424 FILLER_0_20_284
*425 FILLER_0_20_300
*426 FILLER_0_20_308
*427 FILLER_0_20_312
*428 FILLER_0_20_314
*429 FILLER_0_20_317
*430 FILLER_0_20_32
*431 FILLER_0_20_321
*432 FILLER_0_20_34
*433 FILLER_0_20_37
*434 FILLER_0_20_69
*435 FILLER_0_20_73
*436 FILLER_0_20_75
*437 FILLER_0_21_104
*438 FILLER_0_21_124
*439 FILLER_0_21_142
*440 FILLER_0_21_146
*441 FILLER_0_21_157
*442 FILLER_0_21_161
*443 FILLER_0_21_163
*444 FILLER_0_21_170
*445 FILLER_0_21_174
*446 FILLER_0_21_177
*447 FILLER_0_21_2
*448 FILLER_0_21_206
*449 FILLER_0_21_212
*450 FILLER_0_21_276
*451 FILLER_0_21_282
*452 FILLER_0_21_346
*453 FILLER_0_21_348
*454 FILLER_0_21_66
*455 FILLER_0_21_72
*456 FILLER_0_21_74
*457 FILLER_0_22_101
*458 FILLER_0_22_111
*459 FILLER_0_22_115
*460 FILLER_0_22_123
*461 FILLER_0_22_125
*462 FILLER_0_22_149
*463 FILLER_0_22_2
*464 FILLER_0_22_227
*465 FILLER_0_22_231
*466 FILLER_0_22_239
*467 FILLER_0_22_243
*468 FILLER_0_22_252
*469 FILLER_0_22_284
*470 FILLER_0_22_300
*471 FILLER_0_22_308
*472 FILLER_0_22_312
*473 FILLER_0_22_314
*474 FILLER_0_22_317
*475 FILLER_0_22_34
*476 FILLER_0_22_37
*477 FILLER_0_23_104
*478 FILLER_0_23_107
*479 FILLER_0_23_115
*480 FILLER_0_23_119
*481 FILLER_0_23_131
*482 FILLER_0_23_139
*483 FILLER_0_23_142
*484 FILLER_0_23_146
*485 FILLER_0_23_185
*486 FILLER_0_23_189
*487 FILLER_0_23_201
*488 FILLER_0_23_223
*489 FILLER_0_23_258
*490 FILLER_0_23_274
*491 FILLER_0_23_278
*492 FILLER_0_23_28
*493 FILLER_0_23_282
*494 FILLER_0_23_314
*495 FILLER_0_23_322
*496 FILLER_0_23_60
*497 FILLER_0_23_68
*498 FILLER_0_23_72
*499 FILLER_0_24_107
*500 FILLER_0_24_109
*501 FILLER_0_24_147
*502 FILLER_0_24_155
*503 FILLER_0_24_200
*504 FILLER_0_24_255
*505 FILLER_0_24_28
*506 FILLER_0_24_287
*507 FILLER_0_24_303
*508 FILLER_0_24_311
*509 FILLER_0_24_317
*510 FILLER_0_24_32
*511 FILLER_0_24_321
*512 FILLER_0_24_34
*513 FILLER_0_24_37
*514 FILLER_0_24_69
*515 FILLER_0_24_73
*516 FILLER_0_24_75
*517 FILLER_0_25_127
*518 FILLER_0_25_131
*519 FILLER_0_25_139
*520 FILLER_0_25_148
*521 FILLER_0_25_156
*522 FILLER_0_25_167
*523 FILLER_0_25_175
*524 FILLER_0_25_185
*525 FILLER_0_25_201
*526 FILLER_0_25_209
*527 FILLER_0_25_212
*528 FILLER_0_25_228
*529 FILLER_0_25_261
*530 FILLER_0_25_277
*531 FILLER_0_25_279
*532 FILLER_0_25_28
*533 FILLER_0_25_282
*534 FILLER_0_25_314
*535 FILLER_0_25_322
*536 FILLER_0_25_60
*537 FILLER_0_25_68
*538 FILLER_0_25_72
*539 FILLER_0_25_80
*540 FILLER_0_25_84
*541 FILLER_0_25_86
*542 FILLER_0_26_101
*543 FILLER_0_26_107
*544 FILLER_0_26_111
*545 FILLER_0_26_122
*546 FILLER_0_26_154
*547 FILLER_0_26_158
*548 FILLER_0_26_160
*549 FILLER_0_26_169
*550 FILLER_0_26_173
*551 FILLER_0_26_2
*552 FILLER_0_26_227
*553 FILLER_0_26_243
*554 FILLER_0_26_247
*555 FILLER_0_26_311
*556 FILLER_0_26_317
*557 FILLER_0_26_34
*558 FILLER_0_26_37
*559 FILLER_0_27_115
*560 FILLER_0_27_120
*561 FILLER_0_27_124
*562 FILLER_0_27_142
*563 FILLER_0_27_148
*564 FILLER_0_27_150
*565 FILLER_0_27_160
*566 FILLER_0_27_176
*567 FILLER_0_27_184
*568 FILLER_0_27_188
*569 FILLER_0_27_199
*570 FILLER_0_27_2
*571 FILLER_0_27_203
*572 FILLER_0_27_212
*573 FILLER_0_27_245
*574 FILLER_0_27_277
*575 FILLER_0_27_279
*576 FILLER_0_27_282
*577 FILLER_0_27_346
*578 FILLER_0_27_348
*579 FILLER_0_27_66
*580 FILLER_0_27_72
*581 FILLER_0_27_80
*582 FILLER_0_27_84
*583 FILLER_0_28_101
*584 FILLER_0_28_107
*585 FILLER_0_28_123
*586 FILLER_0_28_127
*587 FILLER_0_28_157
*588 FILLER_0_28_161
*589 FILLER_0_28_165
*590 FILLER_0_28_171
*591 FILLER_0_28_177
*592 FILLER_0_28_228
*593 FILLER_0_28_236
*594 FILLER_0_28_244
*595 FILLER_0_28_247
*596 FILLER_0_28_28
*597 FILLER_0_28_311
*598 FILLER_0_28_317
*599 FILLER_0_28_32
*600 FILLER_0_28_34
*601 FILLER_0_28_37
*602 FILLER_0_29_104
*603 FILLER_0_29_120
*604 FILLER_0_29_128
*605 FILLER_0_29_135
*606 FILLER_0_29_139
*607 FILLER_0_29_142
*608 FILLER_0_29_150
*609 FILLER_0_29_154
*610 FILLER_0_29_2
*611 FILLER_0_29_206
*612 FILLER_0_29_212
*613 FILLER_0_29_216
*614 FILLER_0_29_220
*615 FILLER_0_29_252
*616 FILLER_0_29_268
*617 FILLER_0_29_276
*618 FILLER_0_29_282
*619 FILLER_0_29_314
*620 FILLER_0_29_322
*621 FILLER_0_29_66
*622 FILLER_0_29_72
*623 FILLER_0_2_101
*624 FILLER_0_2_107
*625 FILLER_0_2_171
*626 FILLER_0_2_177
*627 FILLER_0_2_2
*628 FILLER_0_2_241
*629 FILLER_0_2_247
*630 FILLER_0_2_311
*631 FILLER_0_2_317
*632 FILLER_0_2_34
*633 FILLER_0_2_37
*634 FILLER_0_30_101
*635 FILLER_0_30_107
*636 FILLER_0_30_115
*637 FILLER_0_30_130
*638 FILLER_0_30_132
*639 FILLER_0_30_139
*640 FILLER_0_30_141
*641 FILLER_0_30_171
*642 FILLER_0_30_177
*643 FILLER_0_30_185
*644 FILLER_0_30_189
*645 FILLER_0_30_191
*646 FILLER_0_30_198
*647 FILLER_0_30_2
*648 FILLER_0_30_230
*649 FILLER_0_30_238
*650 FILLER_0_30_242
*651 FILLER_0_30_244
*652 FILLER_0_30_247
*653 FILLER_0_30_311
*654 FILLER_0_30_317
*655 FILLER_0_30_34
*656 FILLER_0_30_37
*657 FILLER_0_31_135
*658 FILLER_0_31_139
*659 FILLER_0_31_142
*660 FILLER_0_31_144
*661 FILLER_0_31_174
*662 FILLER_0_31_178
*663 FILLER_0_31_2
*664 FILLER_0_31_212
*665 FILLER_0_31_276
*666 FILLER_0_31_282
*667 FILLER_0_31_346
*668 FILLER_0_31_348
*669 FILLER_0_31_66
*670 FILLER_0_31_72
*671 FILLER_0_32_101
*672 FILLER_0_32_107
*673 FILLER_0_32_171
*674 FILLER_0_32_177
*675 FILLER_0_32_2
*676 FILLER_0_32_241
*677 FILLER_0_32_247
*678 FILLER_0_32_311
*679 FILLER_0_32_317
*680 FILLER_0_32_34
*681 FILLER_0_32_37
*682 FILLER_0_33_136
*683 FILLER_0_33_142
*684 FILLER_0_33_2
*685 FILLER_0_33_206
*686 FILLER_0_33_212
*687 FILLER_0_33_276
*688 FILLER_0_33_282
*689 FILLER_0_33_346
*690 FILLER_0_33_348
*691 FILLER_0_33_66
*692 FILLER_0_33_72
*693 FILLER_0_34_101
*694 FILLER_0_34_107
*695 FILLER_0_34_171
*696 FILLER_0_34_177
*697 FILLER_0_34_2
*698 FILLER_0_34_241
*699 FILLER_0_34_247
*700 FILLER_0_34_311
*701 FILLER_0_34_317
*702 FILLER_0_34_34
*703 FILLER_0_34_37
*704 FILLER_0_35_136
*705 FILLER_0_35_142
*706 FILLER_0_35_2
*707 FILLER_0_35_206
*708 FILLER_0_35_212
*709 FILLER_0_35_276
*710 FILLER_0_35_282
*711 FILLER_0_35_346
*712 FILLER_0_35_348
*713 FILLER_0_35_66
*714 FILLER_0_35_72
*715 FILLER_0_36_101
*716 FILLER_0_36_107
*717 FILLER_0_36_171
*718 FILLER_0_36_177
*719 FILLER_0_36_2
*720 FILLER_0_36_241
*721 FILLER_0_36_247
*722 FILLER_0_36_311
*723 FILLER_0_36_317
*724 FILLER_0_36_34
*725 FILLER_0_36_37
*726 FILLER_0_37_136
*727 FILLER_0_37_142
*728 FILLER_0_37_2
*729 FILLER_0_37_206
*730 FILLER_0_37_212
*731 FILLER_0_37_276
*732 FILLER_0_37_282
*733 FILLER_0_37_346
*734 FILLER_0_37_348
*735 FILLER_0_37_66
*736 FILLER_0_37_72
*737 FILLER_0_38_101
*738 FILLER_0_38_107
*739 FILLER_0_38_171
*740 FILLER_0_38_177
*741 FILLER_0_38_2
*742 FILLER_0_38_241
*743 FILLER_0_38_247
*744 FILLER_0_38_311
*745 FILLER_0_38_317
*746 FILLER_0_38_34
*747 FILLER_0_38_37
*748 FILLER_0_39_136
*749 FILLER_0_39_142
*750 FILLER_0_39_2
*751 FILLER_0_39_206
*752 FILLER_0_39_212
*753 FILLER_0_39_276
*754 FILLER_0_39_282
*755 FILLER_0_39_346
*756 FILLER_0_39_348
*757 FILLER_0_39_66
*758 FILLER_0_39_72
*759 FILLER_0_3_136
*760 FILLER_0_3_142
*761 FILLER_0_3_2
*762 FILLER_0_3_206
*763 FILLER_0_3_212
*764 FILLER_0_3_276
*765 FILLER_0_3_282
*766 FILLER_0_3_346
*767 FILLER_0_3_348
*768 FILLER_0_3_66
*769 FILLER_0_3_72
*770 FILLER_0_40_101
*771 FILLER_0_40_107
*772 FILLER_0_40_171
*773 FILLER_0_40_177
*774 FILLER_0_40_2
*775 FILLER_0_40_241
*776 FILLER_0_40_247
*777 FILLER_0_40_311
*778 FILLER_0_40_317
*779 FILLER_0_40_34
*780 FILLER_0_40_37
*781 FILLER_0_41_136
*782 FILLER_0_41_142
*783 FILLER_0_41_2
*784 FILLER_0_41_206
*785 FILLER_0_41_212
*786 FILLER_0_41_276
*787 FILLER_0_41_282
*788 FILLER_0_41_346
*789 FILLER_0_41_348
*790 FILLER_0_41_66
*791 FILLER_0_41_72
*792 FILLER_0_42_101
*793 FILLER_0_42_107
*794 FILLER_0_42_123
*795 FILLER_0_42_153
*796 FILLER_0_42_169
*797 FILLER_0_42_173
*798 FILLER_0_42_177
*799 FILLER_0_42_2
*800 FILLER_0_42_241
*801 FILLER_0_42_247
*802 FILLER_0_42_311
*803 FILLER_0_42_317
*804 FILLER_0_42_34
*805 FILLER_0_42_37
*806 FILLER_0_43_136
*807 FILLER_0_43_168
*808 FILLER_0_43_195
*809 FILLER_0_43_2
*810 FILLER_0_43_203
*811 FILLER_0_43_207
*812 FILLER_0_43_209
*813 FILLER_0_43_212
*814 FILLER_0_43_216
*815 FILLER_0_43_243
*816 FILLER_0_43_275
*817 FILLER_0_43_279
*818 FILLER_0_43_282
*819 FILLER_0_43_346
*820 FILLER_0_43_348
*821 FILLER_0_43_66
*822 FILLER_0_43_72
*823 FILLER_0_44_104
*824 FILLER_0_44_108
*825 FILLER_0_44_138
*826 FILLER_0_44_142
*827 FILLER_0_44_172
*828 FILLER_0_44_174
*829 FILLER_0_44_2
*830 FILLER_0_44_201
*831 FILLER_0_44_203
*832 FILLER_0_44_232
*833 FILLER_0_44_236
*834 FILLER_0_44_240
*835 FILLER_0_44_274
*836 FILLER_0_44_308
*837 FILLER_0_44_342
*838 FILLER_0_44_346
*839 FILLER_0_44_348
*840 FILLER_0_44_36
*841 FILLER_0_44_70
*842 FILLER_0_4_101
*843 FILLER_0_4_107
*844 FILLER_0_4_171
*845 FILLER_0_4_177
*846 FILLER_0_4_2
*847 FILLER_0_4_241
*848 FILLER_0_4_247
*849 FILLER_0_4_311
*850 FILLER_0_4_317
*851 FILLER_0_4_34
*852 FILLER_0_4_37
*853 FILLER_0_5_136
*854 FILLER_0_5_142
*855 FILLER_0_5_2
*856 FILLER_0_5_206
*857 FILLER_0_5_212
*858 FILLER_0_5_276
*859 FILLER_0_5_282
*860 FILLER_0_5_346
*861 FILLER_0_5_348
*862 FILLER_0_5_66
*863 FILLER_0_5_72
*864 FILLER_0_6_101
*865 FILLER_0_6_107
*866 FILLER_0_6_171
*867 FILLER_0_6_177
*868 FILLER_0_6_2
*869 FILLER_0_6_241
*870 FILLER_0_6_247
*871 FILLER_0_6_311
*872 FILLER_0_6_317
*873 FILLER_0_6_34
*874 FILLER_0_6_37
*875 FILLER_0_7_136
*876 FILLER_0_7_142
*877 FILLER_0_7_2
*878 FILLER_0_7_206
*879 FILLER_0_7_212
*880 FILLER_0_7_276
*881 FILLER_0_7_282
*882 FILLER_0_7_346
*883 FILLER_0_7_348
*884 FILLER_0_7_66
*885 FILLER_0_7_72
*886 FILLER_0_8_101
*887 FILLER_0_8_107
*888 FILLER_0_8_171
*889 FILLER_0_8_177
*890 FILLER_0_8_2
*891 FILLER_0_8_241
*892 FILLER_0_8_247
*893 FILLER_0_8_311
*894 FILLER_0_8_317
*895 FILLER_0_8_34
*896 FILLER_0_8_37
*897 FILLER_0_9_136
*898 FILLER_0_9_142
*899 FILLER_0_9_2
*900 FILLER_0_9_206
*901 FILLER_0_9_212
*902 FILLER_0_9_276
*903 FILLER_0_9_282
*904 FILLER_0_9_346
*905 FILLER_0_9_348
*906 FILLER_0_9_66
*907 FILLER_0_9_72
*908 PHY_EDGE_ROW_0_Left_45
*909 PHY_EDGE_ROW_0_Right_0
*910 PHY_EDGE_ROW_10_Left_55
*911 PHY_EDGE_ROW_10_Right_10
*912 PHY_EDGE_ROW_11_Left_56
*913 PHY_EDGE_ROW_11_Right_11
*914 PHY_EDGE_ROW_12_Left_57
*915 PHY_EDGE_ROW_12_Right_12
*916 PHY_EDGE_ROW_13_Left_58
*917 PHY_EDGE_ROW_13_Right_13
*918 PHY_EDGE_ROW_14_Left_59
*919 PHY_EDGE_ROW_14_Right_14
*920 PHY_EDGE_ROW_15_Left_60
*921 PHY_EDGE_ROW_15_Right_15
*922 PHY_EDGE_ROW_16_Left_61
*923 PHY_EDGE_ROW_16_Right_16
*924 PHY_EDGE_ROW_17_Left_62
*925 PHY_EDGE_ROW_17_Right_17
*926 PHY_EDGE_ROW_18_Left_63
*927 PHY_EDGE_ROW_18_Right_18
*928 PHY_EDGE_ROW_19_Left_64
*929 PHY_EDGE_ROW_19_Right_19
*930 PHY_EDGE_ROW_1_Left_46
*931 PHY_EDGE_ROW_1_Right_1
*932 PHY_EDGE_ROW_20_Left_65
*933 PHY_EDGE_ROW_20_Right_20
*934 PHY_EDGE_ROW_21_Left_66
*935 PHY_EDGE_ROW_21_Right_21
*936 PHY_EDGE_ROW_22_Left_67
*937 PHY_EDGE_ROW_22_Right_22
*938 PHY_EDGE_ROW_23_Left_68
*939 PHY_EDGE_ROW_23_Right_23
*940 PHY_EDGE_ROW_24_Left_69
*941 PHY_EDGE_ROW_24_Right_24
*942 PHY_EDGE_ROW_25_Left_70
*943 PHY_EDGE_ROW_25_Right_25
*944 PHY_EDGE_ROW_26_Left_71
*945 PHY_EDGE_ROW_26_Right_26
*946 PHY_EDGE_ROW_27_Left_72
*947 PHY_EDGE_ROW_27_Right_27
*948 PHY_EDGE_ROW_28_Left_73
*949 PHY_EDGE_ROW_28_Right_28
*950 PHY_EDGE_ROW_29_Left_74
*951 PHY_EDGE_ROW_29_Right_29
*952 PHY_EDGE_ROW_2_Left_47
*953 PHY_EDGE_ROW_2_Right_2
*954 PHY_EDGE_ROW_30_Left_75
*955 PHY_EDGE_ROW_30_Right_30
*956 PHY_EDGE_ROW_31_Left_76
*957 PHY_EDGE_ROW_31_Right_31
*958 PHY_EDGE_ROW_32_Left_77
*959 PHY_EDGE_ROW_32_Right_32
*960 PHY_EDGE_ROW_33_Left_78
*961 PHY_EDGE_ROW_33_Right_33
*962 PHY_EDGE_ROW_34_Left_79
*963 PHY_EDGE_ROW_34_Right_34
*964 PHY_EDGE_ROW_35_Left_80
*965 PHY_EDGE_ROW_35_Right_35
*966 PHY_EDGE_ROW_36_Left_81
*967 PHY_EDGE_ROW_36_Right_36
*968 PHY_EDGE_ROW_37_Left_82
*969 PHY_EDGE_ROW_37_Right_37
*970 PHY_EDGE_ROW_38_Left_83
*971 PHY_EDGE_ROW_38_Right_38
*972 PHY_EDGE_ROW_39_Left_84
*973 PHY_EDGE_ROW_39_Right_39
*974 PHY_EDGE_ROW_3_Left_48
*975 PHY_EDGE_ROW_3_Right_3
*976 PHY_EDGE_ROW_40_Left_85
*977 PHY_EDGE_ROW_40_Right_40
*978 PHY_EDGE_ROW_41_Left_86
*979 PHY_EDGE_ROW_41_Right_41
*980 PHY_EDGE_ROW_42_Left_87
*981 PHY_EDGE_ROW_42_Right_42
*982 PHY_EDGE_ROW_43_Left_88
*983 PHY_EDGE_ROW_43_Right_43
*984 PHY_EDGE_ROW_44_Left_89
*985 PHY_EDGE_ROW_44_Right_44
*986 PHY_EDGE_ROW_4_Left_49
*987 PHY_EDGE_ROW_4_Right_4
*988 PHY_EDGE_ROW_5_Left_50
*989 PHY_EDGE_ROW_5_Right_5
*990 PHY_EDGE_ROW_6_Left_51
*991 PHY_EDGE_ROW_6_Right_6
*992 PHY_EDGE_ROW_7_Left_52
*993 PHY_EDGE_ROW_7_Right_7
*994 PHY_EDGE_ROW_8_Left_53
*995 PHY_EDGE_ROW_8_Right_8
*996 PHY_EDGE_ROW_9_Left_54
*997 PHY_EDGE_ROW_9_Right_9
*998 TAP_TAPCELL_ROW_0_90
*999 TAP_TAPCELL_ROW_0_91
*1000 TAP_TAPCELL_ROW_0_92
*1001 TAP_TAPCELL_ROW_0_93
*1002 TAP_TAPCELL_ROW_0_94
*1003 TAP_TAPCELL_ROW_0_95
*1004 TAP_TAPCELL_ROW_0_96
*1005 TAP_TAPCELL_ROW_0_97
*1006 TAP_TAPCELL_ROW_0_98
*1007 TAP_TAPCELL_ROW_0_99
*1008 TAP_TAPCELL_ROW_10_140
*1009 TAP_TAPCELL_ROW_10_141
*1010 TAP_TAPCELL_ROW_10_142
*1011 TAP_TAPCELL_ROW_10_143
*1012 TAP_TAPCELL_ROW_10_144
*1013 TAP_TAPCELL_ROW_11_145
*1014 TAP_TAPCELL_ROW_11_146
*1015 TAP_TAPCELL_ROW_11_147
*1016 TAP_TAPCELL_ROW_11_148
*1017 TAP_TAPCELL_ROW_12_149
*1018 TAP_TAPCELL_ROW_12_150
*1019 TAP_TAPCELL_ROW_12_151
*1020 TAP_TAPCELL_ROW_12_152
*1021 TAP_TAPCELL_ROW_12_153
*1022 TAP_TAPCELL_ROW_13_154
*1023 TAP_TAPCELL_ROW_13_155
*1024 TAP_TAPCELL_ROW_13_156
*1025 TAP_TAPCELL_ROW_13_157
*1026 TAP_TAPCELL_ROW_14_158
*1027 TAP_TAPCELL_ROW_14_159
*1028 TAP_TAPCELL_ROW_14_160
*1029 TAP_TAPCELL_ROW_14_161
*1030 TAP_TAPCELL_ROW_14_162
*1031 TAP_TAPCELL_ROW_15_163
*1032 TAP_TAPCELL_ROW_15_164
*1033 TAP_TAPCELL_ROW_15_165
*1034 TAP_TAPCELL_ROW_15_166
*1035 TAP_TAPCELL_ROW_16_167
*1036 TAP_TAPCELL_ROW_16_168
*1037 TAP_TAPCELL_ROW_16_169
*1038 TAP_TAPCELL_ROW_16_170
*1039 TAP_TAPCELL_ROW_16_171
*1040 TAP_TAPCELL_ROW_17_172
*1041 TAP_TAPCELL_ROW_17_173
*1042 TAP_TAPCELL_ROW_17_174
*1043 TAP_TAPCELL_ROW_17_175
*1044 TAP_TAPCELL_ROW_18_176
*1045 TAP_TAPCELL_ROW_18_177
*1046 TAP_TAPCELL_ROW_18_178
*1047 TAP_TAPCELL_ROW_18_179
*1048 TAP_TAPCELL_ROW_18_180
*1049 TAP_TAPCELL_ROW_19_181
*1050 TAP_TAPCELL_ROW_19_182
*1051 TAP_TAPCELL_ROW_19_183
*1052 TAP_TAPCELL_ROW_19_184
*1053 TAP_TAPCELL_ROW_1_100
*1054 TAP_TAPCELL_ROW_1_101
*1055 TAP_TAPCELL_ROW_1_102
*1056 TAP_TAPCELL_ROW_1_103
*1057 TAP_TAPCELL_ROW_20_185
*1058 TAP_TAPCELL_ROW_20_186
*1059 TAP_TAPCELL_ROW_20_187
*1060 TAP_TAPCELL_ROW_20_188
*1061 TAP_TAPCELL_ROW_20_189
*1062 TAP_TAPCELL_ROW_21_190
*1063 TAP_TAPCELL_ROW_21_191
*1064 TAP_TAPCELL_ROW_21_192
*1065 TAP_TAPCELL_ROW_21_193
*1066 TAP_TAPCELL_ROW_22_194
*1067 TAP_TAPCELL_ROW_22_195
*1068 TAP_TAPCELL_ROW_22_196
*1069 TAP_TAPCELL_ROW_22_197
*1070 TAP_TAPCELL_ROW_22_198
*1071 TAP_TAPCELL_ROW_23_199
*1072 TAP_TAPCELL_ROW_23_200
*1073 TAP_TAPCELL_ROW_23_201
*1074 TAP_TAPCELL_ROW_23_202
*1075 TAP_TAPCELL_ROW_24_203
*1076 TAP_TAPCELL_ROW_24_204
*1077 TAP_TAPCELL_ROW_24_205
*1078 TAP_TAPCELL_ROW_24_206
*1079 TAP_TAPCELL_ROW_24_207
*1080 TAP_TAPCELL_ROW_25_208
*1081 TAP_TAPCELL_ROW_25_209
*1082 TAP_TAPCELL_ROW_25_210
*1083 TAP_TAPCELL_ROW_25_211
*1084 TAP_TAPCELL_ROW_26_212
*1085 TAP_TAPCELL_ROW_26_213
*1086 TAP_TAPCELL_ROW_26_214
*1087 TAP_TAPCELL_ROW_26_215
*1088 TAP_TAPCELL_ROW_26_216
*1089 TAP_TAPCELL_ROW_27_217
*1090 TAP_TAPCELL_ROW_27_218
*1091 TAP_TAPCELL_ROW_27_219
*1092 TAP_TAPCELL_ROW_27_220
*1093 TAP_TAPCELL_ROW_28_221
*1094 TAP_TAPCELL_ROW_28_222
*1095 TAP_TAPCELL_ROW_28_223
*1096 TAP_TAPCELL_ROW_28_224
*1097 TAP_TAPCELL_ROW_28_225
*1098 TAP_TAPCELL_ROW_29_226
*1099 TAP_TAPCELL_ROW_29_227
*1100 TAP_TAPCELL_ROW_29_228
*1101 TAP_TAPCELL_ROW_29_229
*1102 TAP_TAPCELL_ROW_2_104
*1103 TAP_TAPCELL_ROW_2_105
*1104 TAP_TAPCELL_ROW_2_106
*1105 TAP_TAPCELL_ROW_2_107
*1106 TAP_TAPCELL_ROW_2_108
*1107 TAP_TAPCELL_ROW_30_230
*1108 TAP_TAPCELL_ROW_30_231
*1109 TAP_TAPCELL_ROW_30_232
*1110 TAP_TAPCELL_ROW_30_233
*1111 TAP_TAPCELL_ROW_30_234
*1112 TAP_TAPCELL_ROW_31_235
*1113 TAP_TAPCELL_ROW_31_236
*1114 TAP_TAPCELL_ROW_31_237
*1115 TAP_TAPCELL_ROW_31_238
*1116 TAP_TAPCELL_ROW_32_239
*1117 TAP_TAPCELL_ROW_32_240
*1118 TAP_TAPCELL_ROW_32_241
*1119 TAP_TAPCELL_ROW_32_242
*1120 TAP_TAPCELL_ROW_32_243
*1121 TAP_TAPCELL_ROW_33_244
*1122 TAP_TAPCELL_ROW_33_245
*1123 TAP_TAPCELL_ROW_33_246
*1124 TAP_TAPCELL_ROW_33_247
*1125 TAP_TAPCELL_ROW_34_248
*1126 TAP_TAPCELL_ROW_34_249
*1127 TAP_TAPCELL_ROW_34_250
*1128 TAP_TAPCELL_ROW_34_251
*1129 TAP_TAPCELL_ROW_34_252
*1130 TAP_TAPCELL_ROW_35_253
*1131 TAP_TAPCELL_ROW_35_254
*1132 TAP_TAPCELL_ROW_35_255
*1133 TAP_TAPCELL_ROW_35_256
*1134 TAP_TAPCELL_ROW_36_257
*1135 TAP_TAPCELL_ROW_36_258
*1136 TAP_TAPCELL_ROW_36_259
*1137 TAP_TAPCELL_ROW_36_260
*1138 TAP_TAPCELL_ROW_36_261
*1139 TAP_TAPCELL_ROW_37_262
*1140 TAP_TAPCELL_ROW_37_263
*1141 TAP_TAPCELL_ROW_37_264
*1142 TAP_TAPCELL_ROW_37_265
*1143 TAP_TAPCELL_ROW_38_266
*1144 TAP_TAPCELL_ROW_38_267
*1145 TAP_TAPCELL_ROW_38_268
*1146 TAP_TAPCELL_ROW_38_269
*1147 TAP_TAPCELL_ROW_38_270
*1148 TAP_TAPCELL_ROW_39_271
*1149 TAP_TAPCELL_ROW_39_272
*1150 TAP_TAPCELL_ROW_39_273
*1151 TAP_TAPCELL_ROW_39_274
*1152 TAP_TAPCELL_ROW_3_109
*1153 TAP_TAPCELL_ROW_3_110
*1154 TAP_TAPCELL_ROW_3_111
*1155 TAP_TAPCELL_ROW_3_112
*1156 TAP_TAPCELL_ROW_40_275
*1157 TAP_TAPCELL_ROW_40_276
*1158 TAP_TAPCELL_ROW_40_277
*1159 TAP_TAPCELL_ROW_40_278
*1160 TAP_TAPCELL_ROW_40_279
*1161 TAP_TAPCELL_ROW_41_280
*1162 TAP_TAPCELL_ROW_41_281
*1163 TAP_TAPCELL_ROW_41_282
*1164 TAP_TAPCELL_ROW_41_283
*1165 TAP_TAPCELL_ROW_42_284
*1166 TAP_TAPCELL_ROW_42_285
*1167 TAP_TAPCELL_ROW_42_286
*1168 TAP_TAPCELL_ROW_42_287
*1169 TAP_TAPCELL_ROW_42_288
*1170 TAP_TAPCELL_ROW_43_289
*1171 TAP_TAPCELL_ROW_43_290
*1172 TAP_TAPCELL_ROW_43_291
*1173 TAP_TAPCELL_ROW_43_292
*1174 TAP_TAPCELL_ROW_44_293
*1175 TAP_TAPCELL_ROW_44_294
*1176 TAP_TAPCELL_ROW_44_295
*1177 TAP_TAPCELL_ROW_44_296
*1178 TAP_TAPCELL_ROW_44_297
*1179 TAP_TAPCELL_ROW_44_298
*1180 TAP_TAPCELL_ROW_44_299
*1181 TAP_TAPCELL_ROW_44_300
*1182 TAP_TAPCELL_ROW_44_301
*1183 TAP_TAPCELL_ROW_44_302
*1184 TAP_TAPCELL_ROW_4_113
*1185 TAP_TAPCELL_ROW_4_114
*1186 TAP_TAPCELL_ROW_4_115
*1187 TAP_TAPCELL_ROW_4_116
*1188 TAP_TAPCELL_ROW_4_117
*1189 TAP_TAPCELL_ROW_5_118
*1190 TAP_TAPCELL_ROW_5_119
*1191 TAP_TAPCELL_ROW_5_120
*1192 TAP_TAPCELL_ROW_5_121
*1193 TAP_TAPCELL_ROW_6_122
*1194 TAP_TAPCELL_ROW_6_123
*1195 TAP_TAPCELL_ROW_6_124
*1196 TAP_TAPCELL_ROW_6_125
*1197 TAP_TAPCELL_ROW_6_126
*1198 TAP_TAPCELL_ROW_7_127
*1199 TAP_TAPCELL_ROW_7_128
*1200 TAP_TAPCELL_ROW_7_129
*1201 TAP_TAPCELL_ROW_7_130
*1202 TAP_TAPCELL_ROW_8_131
*1203 TAP_TAPCELL_ROW_8_132
*1204 TAP_TAPCELL_ROW_8_133
*1205 TAP_TAPCELL_ROW_8_134
*1206 TAP_TAPCELL_ROW_8_135
*1207 TAP_TAPCELL_ROW_9_136
*1208 TAP_TAPCELL_ROW_9_137
*1209 TAP_TAPCELL_ROW_9_138
*1210 TAP_TAPCELL_ROW_9_139
*1211 _103_
*1212 _104_
*1213 _105_
*1214 _106_
*1215 _107_
*1216 _108_
*1217 _109_
*1218 _110_
*1219 _111_
*1220 _112_
*1221 _113_
*1222 _114_
*1223 _115_
*1224 _116_
*1225 _117_
*1226 _118_
*1227 _119_
*1228 _120_
*1229 _121_
*1230 _122_
*1231 _123_
*1232 _124_
*1233 _125_
*1234 _126_
*1235 _127_
*1236 _128_
*1237 _129_
*1238 _130_
*1239 _131_
*1240 _132_
*1241 _133_
*1242 _134_
*1243 _135_
*1244 _136_
*1245 _137_
*1246 _138_
*1247 _139_
*1248 _140_
*1249 _141_
*1250 _142_
*1251 _143_
*1252 _144_
*1253 _145_
*1254 _146_
*1255 _147_
*1256 _148_
*1257 _149_
*1258 _150_
*1259 _151_
*1260 _152_
*1261 _153_
*1262 _154_
*1263 _155_
*1264 _156_
*1265 _157_
*1266 _158_
*1267 _159_
*1268 _160_
*1269 _161_
*1270 _162_
*1271 _163_
*1272 _164_
*1273 _165_
*1274 _166_
*1275 _167_
*1276 _168_
*1277 _169_
*1278 _170_
*1279 _171_
*1280 _172_
*1281 _173_
*1282 _174_
*1283 _175_
*1284 _176_
*1285 _177_
*1286 _178_
*1287 _179_
*1288 _180_
*1289 _181_
*1290 _182_
*1291 _183_
*1292 _184_
*1293 _185_
*1294 _186_
*1295 _187_
*1296 _188_
*1297 _189_
*1298 _190_
*1299 _191_
*1300 _192_
*1301 _193_
*1302 _194_
*1303 _195_
*1304 _196_
*1305 _197_
*1306 _198_
*1307 _199_
*1308 _200_
*1309 _201_
*1310 _202_
*1311 _203_
*1312 _204_
*1313 _205_
*1314 _206_
*1315 _207_
*1316 _208_
*1317 _209_
*1318 _210_
*1319 _211_
*1320 _212_
*1321 _213_
*1322 _214_
*1323 _215_
*1324 _216_
*1325 _217_
*1326 _218_
*1327 _219_
*1328 _220_
*1329 _221_
*1330 _222_
*1331 _223_
*1332 _224_
*1333 _225_
*1334 _226_
*1335 _227_
*1336 _228_
*1337 _229_
*1338 _230_
*1339 _231_
*1340 _233_
*1341 _234_
*1342 _235_
*1343 clkbuf_0_clk
*1344 clkbuf_1_0__f_clk
*1345 clkbuf_1_1__f_clk
*1346 ita33_26
*1347 output1
*1348 output10
*1349 output11
*1350 output12
*1351 output13
*1352 output14
*1353 output15
*1354 output16
*1355 output17
*1356 output18
*1357 output19
*1358 output2
*1359 output20
*1360 output21
*1361 output22
*1362 output23
*1363 output24
*1364 output25
*1365 output3
*1366 output4
*1367 output5
*1368 output6
*1369 output7
*1370 output8
*1371 output9

*PORTS
clk I
segm[0] O
segm[10] O
segm[11] O
segm[12] O
segm[13] O
segm[1] O
segm[2] O
segm[3] O
segm[4] O
segm[5] O
segm[6] O
segm[7] O
segm[8] O
segm[9] O
sel[0] O
sel[10] O
sel[11] O
sel[1] O
sel[2] O
sel[3] O
sel[4] O
sel[5] O
sel[6] O
sel[7] O
sel[8] O
sel[9] O

*D_NET *1 0.0167387
*CONN
*P clk I
*I *1343:I I *D gf180mcu_fd_sc_mcu7t5v0__clkbuf_16
*I *191:I I *D gf180mcu_fd_sc_mcu7t5v0__antenna
*CAP
1 clk 0.00299985
2 *1343:I 0
3 *191:I 0.000197641
4 *1:19 0.00212262
5 *1:15 0.00492483
6 *191:I *64:18 6.48506e-05
7 *191:I *98:42 1.84866e-05
8 *191:I *108:8 1.30695e-05
9 *191:I *108:23 5.5528e-05
10 *191:I *115:14 9.04462e-05
11 *1:15 *1350:I 0.000586561
12 *1:15 *1352:I 0.000469185
13 *1:19 *1225:I 0
14 *1:19 *1227:I 0.000664126
15 *1:19 *1244:A1 3.31858e-06
16 *1:19 *1246:A2 0.000192751
17 *1:19 *1246:B 0
18 *1:19 *1255:A2 0
19 *1:19 *1257:I 0.00235071
20 *1:19 *1258:I 3.58376e-05
21 *1:19 *1260:A1 0.000106774
22 *1:19 *1260:C 0.00032008
23 *1:19 *1268:I 0
24 *1:19 *1322:D 9.25979e-05
25 *1:19 *1352:I 0
26 *1:19 *100:18 0
27 *1:19 *108:23 9.22066e-05
28 *1:19 *110:12 0.000443907
29 *1:19 *110:18 0.000251568
30 *1:19 *115:14 0.000372597
31 *1:19 *125:8 1.09664e-05
32 *1:19 *129:38 0.000258242
33 *1:19 *130:12 0
34 *1:19 *130:38 0
*RES
1 clk *1:15 32.625 
2 *1:15 *1:19 25.38 
3 *1:19 *191:I 6.12 
4 *1:19 *1343:I 4.5 
*END

*D_NET *2 0.00129351
*CONN
*P segm[0] O
*I *1346:ZN O *D gf180mcu_fd_sc_mcu7t5v0__tiel
*CAP
1 segm[0] 0.000646757
2 *1346:ZN 0.000646757
*RES
1 *1346:ZN segm[0] 9.315 
*END

*D_NET *3 0.000503633
*CONN
*P segm[10] O
*I *1347:Z O *D gf180mcu_fd_sc_mcu7t5v0__buf_8
*CAP
1 segm[10] 0.000218505
2 *1347:Z 0.000218505
3 segm[10] segm[13] 6.66239e-05
*RES
1 *1347:Z segm[10] 11.025 
*END

*D_NET *4 0.00231478
*CONN
*P segm[11] O