*SPEF "ieee 1481-1999"
*DESIGN "ita31"
*DATE "11:11:11 Fri 11 11, 1111"
*VENDOR "OpenRCX"
*PROGRAM "Parallel Extraction"
*VERSION "1.0"
*DESIGN_FLOW "NAME_SCOPE LOCAL" "PIN_CAP NONE"
*DIVIDER /
*DELIMITER :
*BUS_DELIMITER []
*T_UNIT 1 NS
*C_UNIT 1 PF
*R_UNIT 1 OHM
*L_UNIT 1 HENRY

*NAME_MAP
*1 clk
*2 segm[0]
*3 segm[10]
*4 segm[11]
*5 segm[12]
*6 segm[13]
*7 segm[1]
*8 net25
*9 segm[3]
*10 segm[4]
*11 net26
*12 segm[6]
*13 segm[7]
*14 segm[8]
*15 segm[9]
*16 sel[0]
*17 sel[10]
*18 sel[11]
*19 sel[1]
*20 sel[2]
*21 sel[3]
*22 sel[4]
*23 sel[5]
*24 sel[6]
*25 sel[7]
*26 sel[8]
*27 sel[9]
*30 _000_
*31 _001_
*32 _002_
*33 _003_
*34 _004_
*35 _005_
*36 _006_
*37 _007_
*38 _008_
*39 _009_
*40 _010_
*41 _011_
*42 _012_
*43 _013_
*44 _014_
*45 _015_
*46 _016_
*47 _017_
*48 _018_
*49 _019_
*50 _020_
*51 _021_
*52 _022_
*53 _023_
*54 _024_
*55 _025_
*56 _026_
*57 _027_
*58 _028_
*59 _029_
*60 _030_
*61 _031_
*62 _032_
*63 _033_
*64 _034_
*65 _035_
*66 _036_
*67 _037_
*68 _038_
*69 _039_
*70 _040_
*71 _041_
*72 _042_
*73 _043_
*74 _044_
*75 _045_
*76 _046_
*77 _047_
*78 _048_
*79 _049_
*80 _050_
*81 _051_
*82 _052_
*83 _053_
*84 _054_
*85 _055_
*86 _056_
*87 _057_
*88 _058_
*89 _059_
*90 _060_
*91 _061_
*92 _062_
*93 _063_
*94 _064_
*95 _065_
*96 _066_
*97 _067_
*98 _068_
*99 _069_
*100 _070_
*101 _071_
*102 _072_
*103 _073_
*104 _074_
*105 _075_
*106 _076_
*107 _077_
*108 _078_
*109 _079_
*110 _080_
*111 _081_
*112 _082_
*113 _083_
*114 _084_
*115 _085_
*116 _086_
*117 _087_
*118 _088_
*119 _089_
*120 _090_
*121 _091_
*122 _092_
*123 _093_
*124 _094_
*125 clknet_0_clk
*126 clknet_1_0__leaf_clk
*127 clknet_1_1__leaf_clk
*128 dut31\.count\[0\]
*129 dut31\.count\[1\]
*130 dut31\.count\[2\]
*131 dut31\.count\[3\]
*132 net1
*133 net10
*134 net11
*135 net12
*136 net13
*137 net14
*138 net15
*139 net16
*140 net17
*141 net18
*142 net19
*143 net2
*144 net20
*145 net21
*146 net22
*147 net23
*148 net24
*149 net3
*150 net4
*151 net5
*152 net6
*153 net7
*154 net8
*155 net9
*156 ANTENNA__190__CLK
*157 ANTENNA__191__CLK
*158 ANTENNA__192__CLK
*159 ANTENNA__193__CLK
*160 ANTENNA__194__CLK
*161 ANTENNA__195__CLK
*162 ANTENNA__196__CLK
*163 ANTENNA__197__CLK
*164 ANTENNA__198__CLK
*165 ANTENNA__199__CLK
*166 ANTENNA__200__CLK
*167 ANTENNA__201__CLK
*168 ANTENNA__202__CLK
*169 ANTENNA__203__CLK
*170 ANTENNA__204__CLK
*171 ANTENNA__205__CLK
*172 ANTENNA__206__CLK
*173 ANTENNA__207__CLK
*174 ANTENNA__208__CLK
*175 ANTENNA__209__CLK
*176 ANTENNA__210__CLK
*177 ANTENNA__211__CLK
*178 ANTENNA__212__CLK
*179 ANTENNA__213__CLK
*180 ANTENNA__214__CLK
*181 ANTENNA_clkbuf_0_clk_I
*182 FILLER_0_0_104
*183 FILLER_0_0_138
*184 FILLER_0_0_142
*185 FILLER_0_0_198
*186 FILLER_0_0_2
*187 FILLER_0_0_202
*188 FILLER_0_0_206
*189 FILLER_0_0_240
*190 FILLER_0_0_274
*191 FILLER_0_0_308
*192 FILLER_0_0_342
*193 FILLER_0_0_346
*194 FILLER_0_0_348
*195 FILLER_0_0_36
*196 FILLER_0_0_70
*197 FILLER_0_10_101
*198 FILLER_0_10_107
*199 FILLER_0_10_171
*200 FILLER_0_10_177
*201 FILLER_0_10_2
*202 FILLER_0_10_241
*203 FILLER_0_10_247
*204 FILLER_0_10_311
*205 FILLER_0_10_317
*206 FILLER_0_10_34
*207 FILLER_0_10_37
*208 FILLER_0_11_136
*209 FILLER_0_11_142
*210 FILLER_0_11_2
*211 FILLER_0_11_206
*212 FILLER_0_11_212
*213 FILLER_0_11_276
*214 FILLER_0_11_282
*215 FILLER_0_11_346
*216 FILLER_0_11_348
*217 FILLER_0_11_66
*218 FILLER_0_11_72
*219 FILLER_0_12_101
*220 FILLER_0_12_107
*221 FILLER_0_12_171
*222 FILLER_0_12_177
*223 FILLER_0_12_2
*224 FILLER_0_12_241
*225 FILLER_0_12_247
*226 FILLER_0_12_311
*227 FILLER_0_12_317
*228 FILLER_0_12_34
*229 FILLER_0_12_37
*230 FILLER_0_13_136
*231 FILLER_0_13_142
*232 FILLER_0_13_175
*233 FILLER_0_13_191
*234 FILLER_0_13_199
*235 FILLER_0_13_2
*236 FILLER_0_13_203
*237 FILLER_0_13_205
*238 FILLER_0_13_208
*239 FILLER_0_13_212
*240 FILLER_0_13_276
*241 FILLER_0_13_282
*242 FILLER_0_13_346
*243 FILLER_0_13_348
*244 FILLER_0_13_66
*245 FILLER_0_13_72
*246 FILLER_0_14_101
*247 FILLER_0_14_107
*248 FILLER_0_14_115
*249 FILLER_0_14_146
*250 FILLER_0_14_150
*251 FILLER_0_14_158
*252 FILLER_0_14_165
*253 FILLER_0_14_173
*254 FILLER_0_14_2
*255 FILLER_0_14_206
*256 FILLER_0_14_236
*257 FILLER_0_14_240
*258 FILLER_0_14_244
*259 FILLER_0_14_247
*260 FILLER_0_14_311
*261 FILLER_0_14_317
*262 FILLER_0_14_34
*263 FILLER_0_14_37
*264 FILLER_0_15_136
*265 FILLER_0_15_155
*266 FILLER_0_15_163
*267 FILLER_0_15_172
*268 FILLER_0_15_180
*269 FILLER_0_15_2
*270 FILLER_0_15_200
*271 FILLER_0_15_204
*272 FILLER_0_15_212
*273 FILLER_0_15_243
*274 FILLER_0_15_247
*275 FILLER_0_15_279
*276 FILLER_0_15_282
*277 FILLER_0_15_314
*278 FILLER_0_15_322
*279 FILLER_0_15_66
*280 FILLER_0_15_72
*281 FILLER_0_16_101
*282 FILLER_0_16_107
*283 FILLER_0_16_115
*284 FILLER_0_16_119
*285 FILLER_0_16_121
*286 FILLER_0_16_151
*287 FILLER_0_16_155
*288 FILLER_0_16_171
*289 FILLER_0_16_185
*290 FILLER_0_16_192
*291 FILLER_0_16_2
*292 FILLER_0_16_208
*293 FILLER_0_16_234
*294 FILLER_0_16_242
*295 FILLER_0_16_244
*296 FILLER_0_16_247
*297 FILLER_0_16_311
*298 FILLER_0_16_317
*299 FILLER_0_16_321
*300 FILLER_0_16_34
*301 FILLER_0_16_37
*302 FILLER_0_17_121
*303 FILLER_0_17_125
*304 FILLER_0_17_133
*305 FILLER_0_17_142
*306 FILLER_0_17_153
*307 FILLER_0_17_161
*308 FILLER_0_17_171
*309 FILLER_0_17_181
*310 FILLER_0_17_185
*311 FILLER_0_17_193
*312 FILLER_0_17_2
*313 FILLER_0_17_209
*314 FILLER_0_17_212
*315 FILLER_0_17_224
*316 FILLER_0_17_254
*317 FILLER_0_17_258
*318 FILLER_0_17_274
*319 FILLER_0_17_278
*320 FILLER_0_17_282
*321 FILLER_0_17_346
*322 FILLER_0_17_348
*323 FILLER_0_17_66
*324 FILLER_0_17_72
*325 FILLER_0_17_88
*326 FILLER_0_18_101
*327 FILLER_0_18_112
*328 FILLER_0_18_119
*329 FILLER_0_18_135
*330 FILLER_0_18_139
*331 FILLER_0_18_145
*332 FILLER_0_18_153
*333 FILLER_0_18_157
*334 FILLER_0_18_159
*335 FILLER_0_18_177
*336 FILLER_0_18_191
*337 FILLER_0_18_207
*338 FILLER_0_18_211
*339 FILLER_0_18_213
*340 FILLER_0_18_228
*341 FILLER_0_18_232
*342 FILLER_0_18_239
*343 FILLER_0_18_243
*344 FILLER_0_18_247
*345 FILLER_0_18_28
*346 FILLER_0_18_311
*347 FILLER_0_18_317
*348 FILLER_0_18_32
*349 FILLER_0_18_321
*350 FILLER_0_18_34
*351 FILLER_0_18_37
*352 FILLER_0_19_112
*353 FILLER_0_19_114
*354 FILLER_0_19_123
*355 FILLER_0_19_127
*356 FILLER_0_19_135
*357 FILLER_0_19_139
*358 FILLER_0_19_148
*359 FILLER_0_19_152
*360 FILLER_0_19_156
*361 FILLER_0_19_160
*362 FILLER_0_19_164
*363 FILLER_0_19_166
*364 FILLER_0_19_202
*365 FILLER_0_19_206
*366 FILLER_0_19_212
*367 FILLER_0_19_228
*368 FILLER_0_19_234
*369 FILLER_0_19_266
*370 FILLER_0_19_274
*371 FILLER_0_19_278
*372 FILLER_0_19_28
*373 FILLER_0_19_282
*374 FILLER_0_19_346
*375 FILLER_0_19_348
*376 FILLER_0_19_60
*377 FILLER_0_19_68
*378 FILLER_0_19_72
*379 FILLER_0_19_80
*380 FILLER_0_19_82
*381 FILLER_0_1_136
*382 FILLER_0_1_142
*383 FILLER_0_1_144
*384 FILLER_0_1_171
*385 FILLER_0_1_2
*386 FILLER_0_1_203
*387 FILLER_0_1_207
*388 FILLER_0_1_209
*389 FILLER_0_1_212
*390 FILLER_0_1_276
*391 FILLER_0_1_282
*392 FILLER_0_1_346
*393 FILLER_0_1_348
*394 FILLER_0_1_66
*395 FILLER_0_1_72
*396 FILLER_0_20_101
*397 FILLER_0_20_118
*398 FILLER_0_20_122
*399 FILLER_0_20_124
*400 FILLER_0_20_154
*401 FILLER_0_20_156
*402 FILLER_0_20_185
*403 FILLER_0_20_198
*404 FILLER_0_20_2
*405 FILLER_0_20_210
*406 FILLER_0_20_218
*407 FILLER_0_20_228
*408 FILLER_0_20_244
*409 FILLER_0_20_247
*410 FILLER_0_20_311
*411 FILLER_0_20_317
*412 FILLER_0_20_34
*413 FILLER_0_20_37
*414 FILLER_0_21_126
*415 FILLER_0_21_130
*416 FILLER_0_21_138
*417 FILLER_0_21_142
*418 FILLER_0_21_152
*419 FILLER_0_21_246
*420 FILLER_0_21_250
*421 FILLER_0_21_266
*422 FILLER_0_21_274
*423 FILLER_0_21_278
*424 FILLER_0_21_28
*425 FILLER_0_21_282
*426 FILLER_0_21_314
*427 FILLER_0_21_322
*428 FILLER_0_21_60
*429 FILLER_0_21_68
*430 FILLER_0_21_72
*431 FILLER_0_21_88
*432 FILLER_0_21_90
*433 FILLER_0_22_101
*434 FILLER_0_22_107
*435 FILLER_0_22_2
*436 FILLER_0_22_255
*437 FILLER_0_22_287
*438 FILLER_0_22_303
*439 FILLER_0_22_311
*440 FILLER_0_22_317
*441 FILLER_0_22_34
*442 FILLER_0_22_37
*443 FILLER_0_23_122
*444 FILLER_0_23_126
*445 FILLER_0_23_134
*446 FILLER_0_23_138
*447 FILLER_0_23_148
*448 FILLER_0_23_155
*449 FILLER_0_23_161
*450 FILLER_0_23_179
*451 FILLER_0_23_194
*452 FILLER_0_23_202
*453 FILLER_0_23_212
*454 FILLER_0_23_216
*455 FILLER_0_23_218
*456 FILLER_0_23_225
*457 FILLER_0_23_255
*458 FILLER_0_23_259
*459 FILLER_0_23_275
*460 FILLER_0_23_279
*461 FILLER_0_23_28
*462 FILLER_0_23_282
*463 FILLER_0_23_346
*464 FILLER_0_23_348
*465 FILLER_0_23_60
*466 FILLER_0_23_68
*467 FILLER_0_23_72
*468 FILLER_0_23_88
*469 FILLER_0_23_92
*470 FILLER_0_24_101
*471 FILLER_0_24_107
*472 FILLER_0_24_115
*473 FILLER_0_24_117
*474 FILLER_0_24_126
*475 FILLER_0_24_132
*476 FILLER_0_24_140
*477 FILLER_0_24_142
*478 FILLER_0_24_172
*479 FILLER_0_24_174
*480 FILLER_0_24_177
*481 FILLER_0_24_185
*482 FILLER_0_24_209
*483 FILLER_0_24_225
*484 FILLER_0_24_227
*485 FILLER_0_24_236
*486 FILLER_0_24_243
*487 FILLER_0_24_247
*488 FILLER_0_24_28
*489 FILLER_0_24_311
*490 FILLER_0_24_317
*491 FILLER_0_24_32
*492 FILLER_0_24_321
*493 FILLER_0_24_34
*494 FILLER_0_24_37
*495 FILLER_0_25_113
*496 FILLER_0_25_117
*497 FILLER_0_25_119
*498 FILLER_0_25_129
*499 FILLER_0_25_137
*500 FILLER_0_25_139
*501 FILLER_0_25_142
*502 FILLER_0_25_150
*503 FILLER_0_25_164
*504 FILLER_0_25_180
*505 FILLER_0_25_188
*506 FILLER_0_25_199
*507 FILLER_0_25_207
*508 FILLER_0_25_209
*509 FILLER_0_25_212
*510 FILLER_0_25_220
*511 FILLER_0_25_224
*512 FILLER_0_25_254
*513 FILLER_0_25_258
*514 FILLER_0_25_274
*515 FILLER_0_25_278
*516 FILLER_0_25_28
*517 FILLER_0_25_282
*518 FILLER_0_25_314
*519 FILLER_0_25_322
*520 FILLER_0_25_60
*521 FILLER_0_25_68
*522 FILLER_0_25_72
*523 FILLER_0_25_76
*524 FILLER_0_25_78
*525 FILLER_0_26_101
*526 FILLER_0_26_112
*527 FILLER_0_26_128
*528 FILLER_0_26_169
*529 FILLER_0_26_173
*530 FILLER_0_26_177
*531 FILLER_0_26_185
*532 FILLER_0_26_189
*533 FILLER_0_26_202
*534 FILLER_0_26_218
*535 FILLER_0_26_231
*536 FILLER_0_26_239
*537 FILLER_0_26_243
*538 FILLER_0_26_247
*539 FILLER_0_26_28
*540 FILLER_0_26_311
*541 FILLER_0_26_317
*542 FILLER_0_26_32
*543 FILLER_0_26_34
*544 FILLER_0_26_37
*545 FILLER_0_27_115
*546 FILLER_0_27_119
*547 FILLER_0_27_135
*548 FILLER_0_27_139
*549 FILLER_0_27_142
*550 FILLER_0_27_150
*551 FILLER_0_27_152
*552 FILLER_0_27_159
*553 FILLER_0_27_161
*554 FILLER_0_27_168
*555 FILLER_0_27_172
*556 FILLER_0_27_179
*557 FILLER_0_27_2
*558 FILLER_0_27_212
*559 FILLER_0_27_216
*560 FILLER_0_27_220
*561 FILLER_0_27_250
*562 FILLER_0_27_254
*563 FILLER_0_27_270
*564 FILLER_0_27_278
*565 FILLER_0_27_282
*566 FILLER_0_27_346
*567 FILLER_0_27_348
*568 FILLER_0_27_66
*569 FILLER_0_27_72
*570 FILLER_0_27_80
*571 FILLER_0_27_84
*572 FILLER_0_28_104
*573 FILLER_0_28_107
*574 FILLER_0_28_125
*575 FILLER_0_28_129
*576 FILLER_0_28_138
*577 FILLER_0_28_154
*578 FILLER_0_28_168
*579 FILLER_0_28_172
*580 FILLER_0_28_174
*581 FILLER_0_28_186
*582 FILLER_0_28_190
*583 FILLER_0_28_2
*584 FILLER_0_28_210
*585 FILLER_0_28_226
*586 FILLER_0_28_231
*587 FILLER_0_28_239
*588 FILLER_0_28_243
*589 FILLER_0_28_247
*590 FILLER_0_28_311
*591 FILLER_0_28_317
*592 FILLER_0_28_321
*593 FILLER_0_28_34
*594 FILLER_0_28_37
*595 FILLER_0_28_69
*596 FILLER_0_28_85
*597 FILLER_0_28_93
*598 FILLER_0_28_97
*599 FILLER_0_28_99
*600 FILLER_0_29_123
*601 FILLER_0_29_127
*602 FILLER_0_29_131
*603 FILLER_0_29_133
*604 FILLER_0_29_142
*605 FILLER_0_29_189
*606 FILLER_0_29_205
*607 FILLER_0_29_209
*608 FILLER_0_29_218
*609 FILLER_0_29_250
*610 FILLER_0_29_266
*611 FILLER_0_29_274
*612 FILLER_0_29_278
*613 FILLER_0_29_28
*614 FILLER_0_29_282
*615 FILLER_0_29_346
*616 FILLER_0_29_348
*617 FILLER_0_29_60
*618 FILLER_0_29_68
*619 FILLER_0_29_72
*620 FILLER_0_29_88
*621 FILLER_0_29_92
*622 FILLER_0_2_101
*623 FILLER_0_2_107
*624 FILLER_0_2_171
*625 FILLER_0_2_177
*626 FILLER_0_2_2
*627 FILLER_0_2_241
*628 FILLER_0_2_247
*629 FILLER_0_2_311
*630 FILLER_0_2_317
*631 FILLER_0_2_34
*632 FILLER_0_2_37
*633 FILLER_0_30_101
*634 FILLER_0_30_107
*635 FILLER_0_30_113
*636 FILLER_0_30_158
*637 FILLER_0_30_162
*638 FILLER_0_30_170
*639 FILLER_0_30_174
*640 FILLER_0_30_181
*641 FILLER_0_30_185
*642 FILLER_0_30_187
*643 FILLER_0_30_223
*644 FILLER_0_30_227
*645 FILLER_0_30_243
*646 FILLER_0_30_247
*647 FILLER_0_30_28
*648 FILLER_0_30_311
*649 FILLER_0_30_317
*650 FILLER_0_30_32
*651 FILLER_0_30_34
*652 FILLER_0_30_37
*653 FILLER_0_31_136
*654 FILLER_0_31_142
*655 FILLER_0_31_2
*656 FILLER_0_31_206
*657 FILLER_0_31_212
*658 FILLER_0_31_276
*659 FILLER_0_31_282
*660 FILLER_0_31_346
*661 FILLER_0_31_348
*662 FILLER_0_31_66
*663 FILLER_0_31_72
*664 FILLER_0_32_101
*665 FILLER_0_32_107
*666 FILLER_0_32_171
*667 FILLER_0_32_177
*668 FILLER_0_32_2
*669 FILLER_0_32_241
*670 FILLER_0_32_247
*671 FILLER_0_32_311
*672 FILLER_0_32_317
*673 FILLER_0_32_34
*674 FILLER_0_32_37
*675 FILLER_0_33_136
*676 FILLER_0_33_142
*677 FILLER_0_33_2
*678 FILLER_0_33_206
*679 FILLER_0_33_212
*680 FILLER_0_33_276
*681 FILLER_0_33_282
*682 FILLER_0_33_346
*683 FILLER_0_33_348
*684 FILLER_0_33_66
*685 FILLER_0_33_72
*686 FILLER_0_34_101
*687 FILLER_0_34_107
*688 FILLER_0_34_171
*689 FILLER_0_34_177
*690 FILLER_0_34_2
*691 FILLER_0_34_241
*692 FILLER_0_34_247
*693 FILLER_0_34_311
*694 FILLER_0_34_317
*695 FILLER_0_34_34
*696 FILLER_0_34_37
*697 FILLER_0_35_136
*698 FILLER_0_35_142
*699 FILLER_0_35_2
*700 FILLER_0_35_206
*701 FILLER_0_35_212
*702 FILLER_0_35_276
*703 FILLER_0_35_282
*704 FILLER_0_35_346
*705 FILLER_0_35_348
*706 FILLER_0_35_66
*707 FILLER_0_35_72
*708 FILLER_0_36_101
*709 FILLER_0_36_107
*710 FILLER_0_36_171
*711 FILLER_0_36_177
*712 FILLER_0_36_2
*713 FILLER_0_36_241
*714 FILLER_0_36_247
*715 FILLER_0_36_311
*716 FILLER_0_36_317
*717 FILLER_0_36_34
*718 FILLER_0_36_37
*719 FILLER_0_37_136
*720 FILLER_0_37_142
*721 FILLER_0_37_2
*722 FILLER_0_37_206
*723 FILLER_0_37_212
*724 FILLER_0_37_276
*725 FILLER_0_37_282
*726 FILLER_0_37_346
*727 FILLER_0_37_348
*728 FILLER_0_37_66
*729 FILLER_0_37_72
*730 FILLER_0_38_101
*731 FILLER_0_38_107
*732 FILLER_0_38_171
*733 FILLER_0_38_177
*734 FILLER_0_38_2
*735 FILLER_0_38_241
*736 FILLER_0_38_247
*737 FILLER_0_38_311
*738 FILLER_0_38_317
*739 FILLER_0_38_34
*740 FILLER_0_38_37
*741 FILLER_0_39_136
*742 FILLER_0_39_142
*743 FILLER_0_39_2
*744 FILLER_0_39_206
*745 FILLER_0_39_212
*746 FILLER_0_39_276
*747 FILLER_0_39_282
*748 FILLER_0_39_346
*749 FILLER_0_39_348
*750 FILLER_0_39_66
*751 FILLER_0_39_72
*752 FILLER_0_3_136
*753 FILLER_0_3_142
*754 FILLER_0_3_2
*755 FILLER_0_3_206
*756 FILLER_0_3_212
*757 FILLER_0_3_276
*758 FILLER_0_3_282
*759 FILLER_0_3_346
*760 FILLER_0_3_348
*761 FILLER_0_3_66
*762 FILLER_0_3_72
*763 FILLER_0_40_101
*764 FILLER_0_40_107
*765 FILLER_0_40_171
*766 FILLER_0_40_177
*767 FILLER_0_40_2
*768 FILLER_0_40_241
*769 FILLER_0_40_247
*770 FILLER_0_40_311
*771 FILLER_0_40_317
*772 FILLER_0_40_34
*773 FILLER_0_40_37
*774 FILLER_0_41_136
*775 FILLER_0_41_142
*776 FILLER_0_41_2
*777 FILLER_0_41_206
*778 FILLER_0_41_212
*779 FILLER_0_41_276
*780 FILLER_0_41_282
*781 FILLER_0_41_346
*782 FILLER_0_41_348
*783 FILLER_0_41_66
*784 FILLER_0_41_72
*785 FILLER_0_42_101
*786 FILLER_0_42_107
*787 FILLER_0_42_171
*788 FILLER_0_42_177
*789 FILLER_0_42_193
*790 FILLER_0_42_197
*791 FILLER_0_42_2
*792 FILLER_0_42_225
*793 FILLER_0_42_241
*794 FILLER_0_42_247
*795 FILLER_0_42_311
*796 FILLER_0_42_317
*797 FILLER_0_42_333
*798 FILLER_0_42_34
*799 FILLER_0_42_341
*800 FILLER_0_42_37
*801 FILLER_0_43_136
*802 FILLER_0_43_142
*803 FILLER_0_43_174
*804 FILLER_0_43_190
*805 FILLER_0_43_198
*806 FILLER_0_43_2
*807 FILLER_0_43_202
*808 FILLER_0_43_204
*809 FILLER_0_43_209
*810 FILLER_0_43_238
*811 FILLER_0_43_270
*812 FILLER_0_43_278
*813 FILLER_0_43_282
*814 FILLER_0_43_346
*815 FILLER_0_43_348
*816 FILLER_0_43_66
*817 FILLER_0_43_72
*818 FILLER_0_44_104
*819 FILLER_0_44_138
*820 FILLER_0_44_172
*821 FILLER_0_44_176
*822 FILLER_0_44_2
*823 FILLER_0_44_232
*824 FILLER_0_44_236
*825 FILLER_0_44_266
*826 FILLER_0_44_270
*827 FILLER_0_44_274
*828 FILLER_0_44_308
*829 FILLER_0_44_342
*830 FILLER_0_44_346
*831 FILLER_0_44_348
*832 FILLER_0_44_36
*833 FILLER_0_44_70
*834 FILLER_0_4_101
*835 FILLER_0_4_107
*836 FILLER_0_4_171
*837 FILLER_0_4_177
*838 FILLER_0_4_2
*839 FILLER_0_4_241
*840 FILLER_0_4_247
*841 FILLER_0_4_311
*842 FILLER_0_4_317
*843 FILLER_0_4_34
*844 FILLER_0_4_37
*845 FILLER_0_5_136
*846 FILLER_0_5_142
*847 FILLER_0_5_2
*848 FILLER_0_5_206
*849 FILLER_0_5_212
*850 FILLER_0_5_276
*851 FILLER_0_5_282
*852 FILLER_0_5_346
*853 FILLER_0_5_348
*854 FILLER_0_5_66
*855 FILLER_0_5_72
*856 FILLER_0_6_101
*857 FILLER_0_6_107
*858 FILLER_0_6_171
*859 FILLER_0_6_177
*860 FILLER_0_6_2
*861 FILLER_0_6_241
*862 FILLER_0_6_247
*863 FILLER_0_6_311
*864 FILLER_0_6_317
*865 FILLER_0_6_34
*866 FILLER_0_6_37
*867 FILLER_0_7_136
*868 FILLER_0_7_142
*869 FILLER_0_7_2
*870 FILLER_0_7_206
*871 FILLER_0_7_212
*872 FILLER_0_7_276
*873 FILLER_0_7_282
*874 FILLER_0_7_346
*875 FILLER_0_7_348
*876 FILLER_0_7_66
*877 FILLER_0_7_72
*878 FILLER_0_8_101
*879 FILLER_0_8_107
*880 FILLER_0_8_171
*881 FILLER_0_8_177
*882 FILLER_0_8_2
*883 FILLER_0_8_241
*884 FILLER_0_8_247
*885 FILLER_0_8_311
*886 FILLER_0_8_317
*887 FILLER_0_8_34
*888 FILLER_0_8_37
*889 FILLER_0_9_136
*890 FILLER_0_9_142
*891 FILLER_0_9_2
*892 FILLER_0_9_206
*893 FILLER_0_9_212
*894 FILLER_0_9_276
*895 FILLER_0_9_282
*896 FILLER_0_9_346
*897 FILLER_0_9_348
*898 FILLER_0_9_66
*899 FILLER_0_9_72
*900 PHY_EDGE_ROW_0_Left_45
*901 PHY_EDGE_ROW_0_Right_0
*902 PHY_EDGE_ROW_10_Left_55
*903 PHY_EDGE_ROW_10_Right_10
*904 PHY_EDGE_ROW_11_Left_56
*905 PHY_EDGE_ROW_11_Right_11
*906 PHY_EDGE_ROW_12_Left_57
*907 PHY_EDGE_ROW_12_Right_12
*908 PHY_EDGE_ROW_13_Left_58
*909 PHY_EDGE_ROW_13_Right_13
*910 PHY_EDGE_ROW_14_Left_59
*911 PHY_EDGE_ROW_14_Right_14
*912 PHY_EDGE_ROW_15_Left_60
*913 PHY_EDGE_ROW_15_Right_15
*914 PHY_EDGE_ROW_16_Left_61
*915 PHY_EDGE_ROW_16_Right_16
*916 PHY_EDGE_ROW_17_Left_62
*917 PHY_EDGE_ROW_17_Right_17
*918 PHY_EDGE_ROW_18_Left_63
*919 PHY_EDGE_ROW_18_Right_18
*920 PHY_EDGE_ROW_19_Left_64
*921 PHY_EDGE_ROW_19_Right_19
*922 PHY_EDGE_ROW_1_Left_46
*923 PHY_EDGE_ROW_1_Right_1
*924 PHY_EDGE_ROW_20_Left_65
*925 PHY_EDGE_ROW_20_Right_20
*926 PHY_EDGE_ROW_21_Left_66
*927 PHY_EDGE_ROW_21_Right_21
*928 PHY_EDGE_ROW_22_Left_67
*929 PHY_EDGE_ROW_22_Right_22
*930 PHY_EDGE_ROW_23_Left_68
*931 PHY_EDGE_ROW_23_Right_23
*932 PHY_EDGE_ROW_24_Left_69
*933 PHY_EDGE_ROW_24_Right_24
*934 PHY_EDGE_ROW_25_Left_70
*935 PHY_EDGE_ROW_25_Right_25
*936 PHY_EDGE_ROW_26_Left_71
*937 PHY_EDGE_ROW_26_Right_26
*938 PHY_EDGE_ROW_27_Left_72
*939 PHY_EDGE_ROW_27_Right_27
*940 PHY_EDGE_ROW_28_Left_73
*941 PHY_EDGE_ROW_28_Right_28
*942 PHY_EDGE_ROW_29_Left_74
*943 PHY_EDGE_ROW_29_Right_29
*944 PHY_EDGE_ROW_2_Left_47
*945 PHY_EDGE_ROW_2_Right_2
*946 PHY_EDGE_ROW_30_Left_75
*947 PHY_EDGE_ROW_30_Right_30
*948 PHY_EDGE_ROW_31_Left_76
*949 PHY_EDGE_ROW_31_Right_31
*950 PHY_EDGE_ROW_32_Left_77
*951 PHY_EDGE_ROW_32_Right_32
*952 PHY_EDGE_ROW_33_Left_78
*953 PHY_EDGE_ROW_33_Right_33
*954 PHY_EDGE_ROW_34_Left_79
*955 PHY_EDGE_ROW_34_Right_34
*956 PHY_EDGE_ROW_35_Left_80
*957 PHY_EDGE_ROW_35_Right_35
*958 PHY_EDGE_ROW_36_Left_81
*959 PHY_EDGE_ROW_36_Right_36
*960 PHY_EDGE_ROW_37_Left_82
*961 PHY_EDGE_ROW_37_Right_37
*962 PHY_EDGE_ROW_38_Left_83
*963 PHY_EDGE_ROW_38_Right_38
*964 PHY_EDGE_ROW_39_Left_84
*965 PHY_EDGE_ROW_39_Right_39
*966 PHY_EDGE_ROW_3_Left_48
*967 PHY_EDGE_ROW_3_Right_3
*968 PHY_EDGE_ROW_40_Left_85
*969 PHY_EDGE_ROW_40_Right_40
*970 PHY_EDGE_ROW_41_Left_86
*971 PHY_EDGE_ROW_41_Right_41
*972 PHY_EDGE_ROW_42_Left_87
*973 PHY_EDGE_ROW_42_Right_42
*974 PHY_EDGE_ROW_43_Left_88
*975 PHY_EDGE_ROW_43_Right_43
*976 PHY_EDGE_ROW_44_Left_89
*977 PHY_EDGE_ROW_44_Right_44
*978 PHY_EDGE_ROW_4_Left_49
*979 PHY_EDGE_ROW_4_Right_4
*980 PHY_EDGE_ROW_5_Left_50
*981 PHY_EDGE_ROW_5_Right_5
*982 PHY_EDGE_ROW_6_Left_51
*983 PHY_EDGE_ROW_6_Right_6
*984 PHY_EDGE_ROW_7_Left_52
*985 PHY_EDGE_ROW_7_Right_7
*986 PHY_EDGE_ROW_8_Left_53
*987 PHY_EDGE_ROW_8_Right_8
*988 PHY_EDGE_ROW_9_Left_54
*989 PHY_EDGE_ROW_9_Right_9
*990 TAP_TAPCELL_ROW_0_90
*991 TAP_TAPCELL_ROW_0_91
*992 TAP_TAPCELL_ROW_0_92
*993 TAP_TAPCELL_ROW_0_93
*994 TAP_TAPCELL_ROW_0_94
*995 TAP_TAPCELL_ROW_0_95
*996 TAP_TAPCELL_ROW_0_96
*997 TAP_TAPCELL_ROW_0_97
*998 TAP_TAPCELL_ROW_0_98
*999 TAP_TAPCELL_ROW_0_99
*1000 TAP_TAPCELL_ROW_10_140
*1001 TAP_TAPCELL_ROW_10_141
*1002 TAP_TAPCELL_ROW_10_142
*1003 TAP_TAPCELL_ROW_10_143
*1004 TAP_TAPCELL_ROW_10_144
*1005 TAP_TAPCELL_ROW_11_145
*1006 TAP_TAPCELL_ROW_11_146
*1007 TAP_TAPCELL_ROW_11_147
*1008 TAP_TAPCELL_ROW_11_148
*1009 TAP_TAPCELL_ROW_12_149
*1010 TAP_TAPCELL_ROW_12_150
*1011 TAP_TAPCELL_ROW_12_151
*1012 TAP_TAPCELL_ROW_12_152
*1013 TAP_TAPCELL_ROW_12_153
*1014 TAP_TAPCELL_ROW_13_154
*1015 TAP_TAPCELL_ROW_13_155
*1016 TAP_TAPCELL_ROW_13_156
*1017 TAP_TAPCELL_ROW_13_157
*1018 TAP_TAPCELL_ROW_14_158
*1019 TAP_TAPCELL_ROW_14_159
*1020 TAP_TAPCELL_ROW_14_160
*1021 TAP_TAPCELL_ROW_14_161
*1022 TAP_TAPCELL_ROW_14_162
*1023 TAP_TAPCELL_ROW_15_163
*1024 TAP_TAPCELL_ROW_15_164
*1025 TAP_TAPCELL_ROW_15_165
*1026 TAP_TAPCELL_ROW_15_166
*1027 TAP_TAPCELL_ROW_16_167
*1028 TAP_TAPCELL_ROW_16_168
*1029 TAP_TAPCELL_ROW_16_169
*1030 TAP_TAPCELL_ROW_16_170
*1031 TAP_TAPCELL_ROW_16_171
*1032 TAP_TAPCELL_ROW_17_172
*1033 TAP_TAPCELL_ROW_17_173
*1034 TAP_TAPCELL_ROW_17_174
*1035 TAP_TAPCELL_ROW_17_175
*1036 TAP_TAPCELL_ROW_18_176
*1037 TAP_TAPCELL_ROW_18_177
*1038 TAP_TAPCELL_ROW_18_178
*1039 TAP_TAPCELL_ROW_18_179
*1040 TAP_TAPCELL_ROW_18_180
*1041 TAP_TAPCELL_ROW_19_181
*1042 TAP_TAPCELL_ROW_19_182
*1043 TAP_TAPCELL_ROW_19_183
*1044 TAP_TAPCELL_ROW_19_184
*1045 TAP_TAPCELL_ROW_1_100
*1046 TAP_TAPCELL_ROW_1_101
*1047 TAP_TAPCELL_ROW_1_102
*1048 TAP_TAPCELL_ROW_1_103
*1049 TAP_TAPCELL_ROW_20_185
*1050 TAP_TAPCELL_ROW_20_186
*1051 TAP_TAPCELL_ROW_20_187
*1052 TAP_TAPCELL_ROW_20_188
*1053 TAP_TAPCELL_ROW_20_189
*1054 TAP_TAPCELL_ROW_21_190
*1055 TAP_TAPCELL_ROW_21_191
*1056 TAP_TAPCELL_ROW_21_192
*1057 TAP_TAPCELL_ROW_21_193
*1058 TAP_TAPCELL_ROW_22_194
*1059 TAP_TAPCELL_ROW_22_195
*1060 TAP_TAPCELL_ROW_22_196
*1061 TAP_TAPCELL_ROW_22_197
*1062 TAP_TAPCELL_ROW_22_198
*1063 TAP_TAPCELL_ROW_23_199
*1064 TAP_TAPCELL_ROW_23_200
*1065 TAP_TAPCELL_ROW_23_201
*1066 TAP_TAPCELL_ROW_23_202
*1067 TAP_TAPCELL_ROW_24_203
*1068 TAP_TAPCELL_ROW_24_204
*1069 TAP_TAPCELL_ROW_24_205
*1070 TAP_TAPCELL_ROW_24_206
*1071 TAP_TAPCELL_ROW_24_207
*1072 TAP_TAPCELL_ROW_25_208
*1073 TAP_TAPCELL_ROW_25_209
*1074 TAP_TAPCELL_ROW_25_210
*1075 TAP_TAPCELL_ROW_25_211
*1076 TAP_TAPCELL_ROW_26_212
*1077 TAP_TAPCELL_ROW_26_213
*1078 TAP_TAPCELL_ROW_26_214
*1079 TAP_TAPCELL_ROW_26_215
*1080 TAP_TAPCELL_ROW_26_216
*1081 TAP_TAPCELL_ROW_27_217
*1082 TAP_TAPCELL_ROW_27_218
*1083 TAP_TAPCELL_ROW_27_219
*1084 TAP_TAPCELL_ROW_27_220
*1085 TAP_TAPCELL_ROW_28_221
*1086 TAP_TAPCELL_ROW_28_222
*1087 TAP_TAPCELL_ROW_28_223
*1088 TAP_TAPCELL_ROW_28_224
*1089 TAP_TAPCELL_ROW_28_225
*1090 TAP_TAPCELL_ROW_29_226
*1091 TAP_TAPCELL_ROW_29_227
*1092 TAP_TAPCELL_ROW_29_228
*1093 TAP_TAPCELL_ROW_29_229
*1094 TAP_TAPCELL_ROW_2_104
*1095 TAP_TAPCELL_ROW_2_105
*1096 TAP_TAPCELL_ROW_2_106
*1097 TAP_TAPCELL_ROW_2_107
*1098 TAP_TAPCELL_ROW_2_108
*1099 TAP_TAPCELL_ROW_30_230
*1100 TAP_TAPCELL_ROW_30_231
*1101 TAP_TAPCELL_ROW_30_232
*1102 TAP_TAPCELL_ROW_30_233
*1103 TAP_TAPCELL_ROW_30_234
*1104 TAP_TAPCELL_ROW_31_235
*1105 TAP_TAPCELL_ROW_31_236
*1106 TAP_TAPCELL_ROW_31_237
*1107 TAP_TAPCELL_ROW_31_238
*1108 TAP_TAPCELL_ROW_32_239
*1109 TAP_TAPCELL_ROW_32_240
*1110 TAP_TAPCELL_ROW_32_241
*1111 TAP_TAPCELL_ROW_32_242
*1112 TAP_TAPCELL_ROW_32_243
*1113 TAP_TAPCELL_ROW_33_244
*1114 TAP_TAPCELL_ROW_33_245
*1115 TAP_TAPCELL_ROW_33_246
*1116 TAP_TAPCELL_ROW_33_247
*1117 TAP_TAPCELL_ROW_34_248
*1118 TAP_TAPCELL_ROW_34_249
*1119 TAP_TAPCELL_ROW_34_250
*1120 TAP_TAPCELL_ROW_34_251
*1121 TAP_TAPCELL_ROW_34_252
*1122 TAP_TAPCELL_ROW_35_253
*1123 TAP_TAPCELL_ROW_35_254
*1124 TAP_TAPCELL_ROW_35_255
*1125 TAP_TAPCELL_ROW_35_256
*1126 TAP_TAPCELL_ROW_36_257
*1127 TAP_TAPCELL_ROW_36_258
*1128 TAP_TAPCELL_ROW_36_259
*1129 TAP_TAPCELL_ROW_36_260
*1130 TAP_TAPCELL_ROW_36_261
*1131 TAP_TAPCELL_ROW_37_262
*1132 TAP_TAPCELL_ROW_37_263
*1133 TAP_TAPCELL_ROW_37_264
*1134 TAP_TAPCELL_ROW_37_265
*1135 TAP_TAPCELL_ROW_38_266
*1136 TAP_TAPCELL_ROW_38_267
*1137 TAP_TAPCELL_ROW_38_268
*1138 TAP_TAPCELL_ROW_38_269
*1139 TAP_TAPCELL_ROW_38_270
*1140 TAP_TAPCELL_ROW_39_271
*1141 TAP_TAPCELL_ROW_39_272
*1142 TAP_TAPCELL_ROW_39_273
*1143 TAP_TAPCELL_ROW_39_274
*1144 TAP_TAPCELL_ROW_3_109
*1145 TAP_TAPCELL_ROW_3_110
*1146 TAP_TAPCELL_ROW_3_111
*1147 TAP_TAPCELL_ROW_3_112
*1148 TAP_TAPCELL_ROW_40_275
*1149 TAP_TAPCELL_ROW_40_276
*1150 TAP_TAPCELL_ROW_40_277
*1151 TAP_TAPCELL_ROW_40_278
*1152 TAP_TAPCELL_ROW_40_279
*1153 TAP_TAPCELL_ROW_41_280
*1154 TAP_TAPCELL_ROW_41_281
*1155 TAP_TAPCELL_ROW_41_282
*1156 TAP_TAPCELL_ROW_41_283
*1157 TAP_TAPCELL_ROW_42_284
*1158 TAP_TAPCELL_ROW_42_285
*1159 TAP_TAPCELL_ROW_42_286
*1160 TAP_TAPCELL_ROW_42_287
*1161 TAP_TAPCELL_ROW_42_288
*1162 TAP_TAPCELL_ROW_43_289
*1163 TAP_TAPCELL_ROW_43_290
*1164 TAP_TAPCELL_ROW_43_291
*1165 TAP_TAPCELL_ROW_43_292
*1166 TAP_TAPCELL_ROW_44_293
*1167 TAP_TAPCELL_ROW_44_294
*1168 TAP_TAPCELL_ROW_44_295
*1169 TAP_TAPCELL_ROW_44_296
*1170 TAP_TAPCELL_ROW_44_297
*1171 TAP_TAPCELL_ROW_44_298
*1172 TAP_TAPCELL_ROW_44_299
*1173 TAP_TAPCELL_ROW_44_300
*1174 TAP_TAPCELL_ROW_44_301
*1175 TAP_TAPCELL_ROW_44_302
*1176 TAP_TAPCELL_ROW_4_113
*1177 TAP_TAPCELL_ROW_4_114
*1178 TAP_TAPCELL_ROW_4_115
*1179 TAP_TAPCELL_ROW_4_116
*1180 TAP_TAPCELL_ROW_4_117
*1181 TAP_TAPCELL_ROW_5_118
*1182 TAP_TAPCELL_ROW_5_119
*1183 TAP_TAPCELL_ROW_5_120
*1184 TAP_TAPCELL_ROW_5_121
*1185 TAP_TAPCELL_ROW_6_122
*1186 TAP_TAPCELL_ROW_6_123
*1187 TAP_TAPCELL_ROW_6_124
*1188 TAP_TAPCELL_ROW_6_125
*1189 TAP_TAPCELL_ROW_6_126
*1190 TAP_TAPCELL_ROW_7_127
*1191 TAP_TAPCELL_ROW_7_128
*1192 TAP_TAPCELL_ROW_7_129
*1193 TAP_TAPCELL_ROW_7_130
*1194 TAP_TAPCELL_ROW_8_131
*1195 TAP_TAPCELL_ROW_8_132
*1196 TAP_TAPCELL_ROW_8_133
*1197 TAP_TAPCELL_ROW_8_134
*1198 TAP_TAPCELL_ROW_8_135
*1199 TAP_TAPCELL_ROW_9_136
*1200 TAP_TAPCELL_ROW_9_137
*1201 TAP_TAPCELL_ROW_9_138
*1202 TAP_TAPCELL_ROW_9_139
*1203 _095_
*1204 _096_
*1205 _097_
*1206 _098_
*1207 _099_
*1208 _100_
*1209 _101_
*1210 _102_
*1211 _103_
*1212 _104_
*1213 _105_
*1214 _106_
*1215 _107_
*1216 _108_
*1217 _109_
*1218 _110_
*1219 _111_
*1220 _112_
*1221 _113_
*1222 _114_
*1223 _115_
*1224 _116_
*1225 _117_
*1226 _118_
*1227 _119_
*1228 _120_
*1229 _121_
*1230 _122_
*1231 _123_
*1232 _124_
*1233 _125_
*1234 _126_
*1235 _127_
*1236 _128_
*1237 _129_
*1238 _130_
*1239 _131_
*1240 _132_
*1241 _133_
*1242 _134_
*1243 _135_
*1244 _136_
*1245 _137_
*1246 _138_
*1247 _139_
*1248 _140_
*1249 _141_
*1250 _142_
*1251 _143_
*1252 _144_
*1253 _145_
*1254 _146_
*1255 _147_
*1256 _148_
*1257 _149_
*1258 _150_
*1259 _151_
*1260 _152_
*1261 _153_
*1262 _154_
*1263 _155_
*1264 _156_
*1265 _157_
*1266 _158_
*1267 _159_
*1268 _160_
*1269 _161_
*1270 _162_
*1271 _163_
*1272 _164_
*1273 _165_
*1274 _166_
*1275 _167_
*1276 _168_
*1277 _169_
*1278 _170_
*1279 _171_
*1280 _172_
*1281 _173_
*1282 _174_
*1283 _175_
*1284 _176_
*1285 _177_
*1286 _178_
*1287 _179_
*1288 _180_
*1289 _181_
*1290 _182_
*1291 _183_
*1292 _184_
*1293 _185_
*1294 _186_
*1295 _187_
*1296 _188_
*1297 _189_
*1298 _190_
*1299 _191_
*1300 _192_
*1301 _193_
*1302 _194_
*1303 _195_
*1304 _196_
*1305 _197_
*1306 _198_
*1307 _199_
*1308 _200_
*1309 _201_
*1310 _202_
*1311 _203_
*1312 _204_
*1313 _205_
*1314 _206_
*1315 _207_
*1316 _208_
*1317 _209_
*1318 _210_
*1319 _211_
*1320 _212_
*1321 _213_
*1322 _214_
*1323 _217_
*1324 _218_
*1325 _219_
*1326 clkbuf_0_clk
*1327 clkbuf_1_0__f_clk
*1328 clkbuf_1_1__f_clk
*1329 ita31_25
*1330 ita31_26
*1331 output1
*1332 output10
*1333 output11
*1334 output12
*1335 output13
*1336 output14
*1337 output15
*1338 output16
*1339 output17
*1340 output18
*1341 output19
*1342 output2
*1343 output20
*1344 output21
*1345 output22
*1346 output23
*1347 output24
*1348 output3
*1349 output4
*1350 output5
*1351 output6
*1352 output7
*1353 output8
*1354 output9

*PORTS
clk I
segm[0] O
segm[10] O
segm[11] O
segm[12] O
segm[13] O
segm[1] O
segm[2] O
segm[3] O
segm[4] O
segm[5] O
segm[6] O
segm[7] O
segm[8] O
segm[9] O
sel[0] O
sel[10] O
sel[11] O
sel[1] O
sel[2] O
sel[3] O
sel[4] O
sel[5] O
sel[6] O
sel[7] O
sel[8] O
sel[9] O

*D_NET *1 0.020062
*CONN
*P clk I
*I *1326:I I *D gf180mcu_fd_sc_mcu7t5v0__clkbuf_16
*I *181:I I *D gf180mcu_fd_sc_mcu7t5v0__antenna
*CAP
1 clk 0.00233291
2 *1326:I 0
3 *181:I 0.000313459
4 *1:15 0.00158736
5 *1:11 0.00360681
6 *181:I *1213:I 0.0001185
7 *181:I *1222:A1 2.74163e-05
8 *181:I *1222:A2 0
9 *181:I *1249:A1 0.000198579
10 *181:I *131:8 0
11 *1:11 sel[10] 6.66205e-05
12 *1:11 *1336:I 0.000499457
13 *1:11 *1344:I 9.85004e-05
14 *1:15 *1220:A1 0.000712627
15 *1:15 *1220:B1 0
16 *1:15 *1249:A2 0.000109332
17 *1:15 *1324:I 0.000489638
18 *1:15 *1344:I 0.00711781
19 *1:15 *102:14 9.94422e-05
20 *1:15 *126:12 0.000129087
21 *1:15 *126:181 0.00071392
22 *1:15 *154:10 0.00184053
*RES
1 clk *1:11 25.875 
2 *1:11 *1:15 29.07 
3 *1:15 *181:I 7.2 
4 *1:15 *1326:I 4.5 
*END

*D_NET *2 0.00238458
*CONN
*P segm[0] O
*I *1331:Z O *D gf180mcu_fd_sc_mcu7t5v0__buf_8
*CAP
1 segm[0] 0.000979817
2 *1331:Z 0.000979817
3 segm[0] segm[5] 0.000142846
4 segm[0] segm[8] 4.34634e-05
5 segm[0] sel[5] 0.00013875
6 segm[0] *1333:I 9.98816e-05
*RES
1 *1331:Z segm[0] 21.915 
*END

*D_NET *3 0.000650135
*CONN
*P segm[10] O
*I *1342:Z O *D gf180mcu_fd_sc_mcu7t5v0__buf_8
*CAP
1 segm[10] 0.000325067
2 *1342:Z 0.000325067
*RES
1 *1342:Z segm[10] 11.475 
*END

*D_NET *4 0.000485535
*CONN
*P segm[11] O
*I *1348:Z O *D gf180mcu_fd_sc_mcu7t5v0__buf_8
*CAP
1 segm[11] 0.000242767
2 *1348:Z 0.000242767
*RES
1 *1348:Z segm[11] 11.025 
*END

*D_NET *5 0.000762578
*CONN
*P segm[12] O
*I *1349:Z O *D gf180mcu_fd_sc_mcu7t5v0__buf_8
*CAP
1 segm[12] 0.000381289
2 *1349:Z 0.000381289
*RES
1 *1349:Z segm[12] 11.475 
*END

*D_NET *6 0.000934922
*CONN
*P segm[13] O
*I *1350:Z O *D gf180mcu_fd_sc_mcu7t5v0__buf_8
*CAP
1 segm[13] 0.000437987