*SPEF "ieee 1481-1999"
*DESIGN "ita4"
*DATE "11:11:11 Fri 11 11, 1111"
*VENDOR "OpenRCX"
*PROGRAM "Parallel Extraction"
*VERSION "1.0"
*DESIGN_FLOW "NAME_SCOPE LOCAL" "PIN_CAP NONE"
*DIVIDER /
*DELIMITER :
*BUS_DELIMITER []
*T_UNIT 1 NS
*C_UNIT 1 PF
*R_UNIT 1 OHM
*L_UNIT 1 HENRY

*NAME_MAP
*1 clk
*2 net23
*3 segm[10]
*4 segm[11]
*5 segm[12]
*6 segm[13]
*7 segm[1]
*8 net24
*9 net25
*10 segm[4]
*11 net26
*12 segm[6]
*13 segm[7]
*14 segm[8]
*15 segm[9]
*16 sel[0]
*17 sel[10]
*18 sel[11]
*19 sel[1]
*20 sel[2]
*21 sel[3]
*22 sel[4]
*23 sel[5]
*24 sel[6]
*25 sel[7]
*26 sel[8]
*27 sel[9]
*30 _000_
*31 _001_
*32 _002_
*33 _003_
*34 _004_
*35 _005_
*36 _006_
*37 _007_
*38 _008_
*39 _009_
*40 _010_
*41 _011_
*42 _012_
*43 _013_
*44 _014_
*45 _015_
*46 _016_
*47 _017_
*48 _018_
*49 _019_
*50 _020_
*51 _021_
*52 _022_
*53 _023_
*54 _024_
*55 _025_
*56 _026_
*57 _027_
*58 _028_
*59 _029_
*60 _030_
*61 _031_
*62 _032_
*63 _033_
*64 _034_
*65 _035_
*66 _036_
*67 _037_
*68 _038_
*69 _039_
*70 _040_
*71 _041_
*72 _042_
*73 _043_
*74 _044_
*75 _045_
*76 _046_
*77 _047_
*78 _048_
*79 _049_
*80 _050_
*81 _051_
*82 _052_
*83 _053_
*84 _054_
*85 _055_
*86 _056_
*87 _057_
*88 _058_
*89 _059_
*90 _060_
*91 _061_
*92 _062_
*93 _063_
*94 _064_
*95 _065_
*96 _066_
*97 _067_
*98 _068_
*99 _069_
*100 _070_
*101 _071_
*102 _072_
*103 _073_
*104 _074_
*105 _075_
*106 _076_
*107 _077_
*108 _078_
*109 _079_
*110 _080_
*111 _081_
*112 _082_
*113 _083_
*114 _084_
*115 _085_
*116 _086_
*117 _087_
*118 _088_
*119 _089_
*120 _090_
*121 _091_
*122 _092_
*123 _093_
*124 _094_
*125 _095_
*126 _096_
*127 _097_
*128 _098_
*129 _099_
*130 _100_
*131 _101_
*132 _102_
*133 _103_
*134 _104_
*135 _105_
*136 clknet_0_clk
*137 clknet_1_0__leaf_clk
*138 clknet_1_1__leaf_clk
*139 dut4\.count\[0\]
*140 dut4\.count\[1\]
*141 dut4\.count\[2\]
*142 dut4\.count\[3\]
*143 net1
*144 net10
*145 net11
*146 net12
*147 net13
*148 net14
*149 net15
*150 net16
*151 net17
*152 net18
*153 net19
*154 net2
*155 net20
*156 net21
*157 net22
*158 net3
*159 net4
*160 net5
*161 net6
*162 net7
*163 net8
*164 net9
*165 ANTENNA__212__CLK
*166 ANTENNA__213__CLK
*167 ANTENNA__214__CLK
*168 ANTENNA__215__CLK
*169 ANTENNA__216__CLK
*170 ANTENNA__217__CLK
*171 ANTENNA__218__CLK
*172 ANTENNA__219__CLK
*173 ANTENNA__220__CLK
*174 ANTENNA__221__CLK
*175 ANTENNA__222__CLK
*176 ANTENNA__223__CLK
*177 ANTENNA__224__CLK
*178 ANTENNA__225__CLK
*179 ANTENNA__226__CLK
*180 ANTENNA__227__CLK
*181 ANTENNA__228__CLK
*182 ANTENNA__229__CLK
*183 ANTENNA__230__CLK
*184 ANTENNA__231__CLK
*185 ANTENNA__232__CLK
*186 ANTENNA__233__CLK
*187 ANTENNA__234__CLK
*188 ANTENNA__235__CLK
*189 ANTENNA__236__CLK
*190 ANTENNA_clkbuf_0_clk_I
*191 FILLER_0_0_104
*192 FILLER_0_0_142
*193 FILLER_0_0_158
*194 FILLER_0_0_166
*195 FILLER_0_0_172
*196 FILLER_0_0_176
*197 FILLER_0_0_2
*198 FILLER_0_0_232
*199 FILLER_0_0_236
*200 FILLER_0_0_240
*201 FILLER_0_0_274
*202 FILLER_0_0_308
*203 FILLER_0_0_342
*204 FILLER_0_0_346
*205 FILLER_0_0_348
*206 FILLER_0_0_36
*207 FILLER_0_0_70
*208 FILLER_0_10_101
*209 FILLER_0_10_107
*210 FILLER_0_10_171
*211 FILLER_0_10_177
*212 FILLER_0_10_2
*213 FILLER_0_10_241
*214 FILLER_0_10_247
*215 FILLER_0_10_311
*216 FILLER_0_10_317
*217 FILLER_0_10_34
*218 FILLER_0_10_37
*219 FILLER_0_11_136
*220 FILLER_0_11_142
*221 FILLER_0_11_174
*222 FILLER_0_11_177
*223 FILLER_0_11_2
*224 FILLER_0_11_209
*225 FILLER_0_11_212
*226 FILLER_0_11_276
*227 FILLER_0_11_282
*228 FILLER_0_11_346
*229 FILLER_0_11_348
*230 FILLER_0_11_66
*231 FILLER_0_11_72
*232 FILLER_0_12_101
*233 FILLER_0_12_107
*234 FILLER_0_12_139
*235 FILLER_0_12_143
*236 FILLER_0_12_145
*237 FILLER_0_12_177
*238 FILLER_0_12_183
*239 FILLER_0_12_2
*240 FILLER_0_12_215
*241 FILLER_0_12_231
*242 FILLER_0_12_239
*243 FILLER_0_12_243
*244 FILLER_0_12_247
*245 FILLER_0_12_311
*246 FILLER_0_12_317
*247 FILLER_0_12_34
*248 FILLER_0_12_37
*249 FILLER_0_13_136
*250 FILLER_0_13_142
*251 FILLER_0_13_150
*252 FILLER_0_13_2
*253 FILLER_0_13_212
*254 FILLER_0_13_216
*255 FILLER_0_13_282
*256 FILLER_0_13_346
*257 FILLER_0_13_348
*258 FILLER_0_13_66
*259 FILLER_0_13_72
*260 FILLER_0_14_101
*261 FILLER_0_14_107
*262 FILLER_0_14_115
*263 FILLER_0_14_117
*264 FILLER_0_14_147
*265 FILLER_0_14_151
*266 FILLER_0_14_183
*267 FILLER_0_14_2
*268 FILLER_0_14_225
*269 FILLER_0_14_229
*270 FILLER_0_14_247
*271 FILLER_0_14_311
*272 FILLER_0_14_317
*273 FILLER_0_14_34
*274 FILLER_0_14_37
*275 FILLER_0_15_125
*276 FILLER_0_15_129
*277 FILLER_0_15_137
*278 FILLER_0_15_139
*279 FILLER_0_15_147
*280 FILLER_0_15_155
*281 FILLER_0_15_169
*282 FILLER_0_15_185
*283 FILLER_0_15_195
*284 FILLER_0_15_2
*285 FILLER_0_15_204
*286 FILLER_0_15_208
*287 FILLER_0_15_212
*288 FILLER_0_15_276
*289 FILLER_0_15_282
*290 FILLER_0_15_346
*291 FILLER_0_15_348
*292 FILLER_0_15_66
*293 FILLER_0_15_72
*294 FILLER_0_15_88
*295 FILLER_0_16_101
*296 FILLER_0_16_107
*297 FILLER_0_16_111
*298 FILLER_0_16_119
*299 FILLER_0_16_127
*300 FILLER_0_16_140
*301 FILLER_0_16_153
*302 FILLER_0_16_161
*303 FILLER_0_16_170
*304 FILLER_0_16_174
*305 FILLER_0_16_177
*306 FILLER_0_16_2
*307 FILLER_0_16_209
*308 FILLER_0_16_215
*309 FILLER_0_16_247
*310 FILLER_0_16_251
*311 FILLER_0_16_317
*312 FILLER_0_16_34
*313 FILLER_0_16_37
*314 FILLER_0_17_100
*315 FILLER_0_17_130
*316 FILLER_0_17_134
*317 FILLER_0_17_138
*318 FILLER_0_17_150
*319 FILLER_0_17_158
*320 FILLER_0_17_162
*321 FILLER_0_17_172
*322 FILLER_0_17_176
*323 FILLER_0_17_178
*324 FILLER_0_17_184
*325 FILLER_0_17_200
*326 FILLER_0_17_212
*327 FILLER_0_17_214
*328 FILLER_0_17_224
*329 FILLER_0_17_255
*330 FILLER_0_17_259
*331 FILLER_0_17_275
*332 FILLER_0_17_279
*333 FILLER_0_17_28
*334 FILLER_0_17_282
*335 FILLER_0_17_314
*336 FILLER_0_17_322
*337 FILLER_0_17_60
*338 FILLER_0_17_68
*339 FILLER_0_17_72
*340 FILLER_0_17_88
*341 FILLER_0_17_96
*342 FILLER_0_18_101
*343 FILLER_0_18_107
*344 FILLER_0_18_115
*345 FILLER_0_18_117
*346 FILLER_0_18_123
*347 FILLER_0_18_142
*348 FILLER_0_18_146
*349 FILLER_0_18_148
*350 FILLER_0_18_173
*351 FILLER_0_18_199
*352 FILLER_0_18_2
*353 FILLER_0_18_201
*354 FILLER_0_18_209
*355 FILLER_0_18_217
*356 FILLER_0_18_224
*357 FILLER_0_18_240
*358 FILLER_0_18_244
*359 FILLER_0_18_251
*360 FILLER_0_18_317
*361 FILLER_0_18_34
*362 FILLER_0_18_37
*363 FILLER_0_19_104
*364 FILLER_0_19_107
*365 FILLER_0_19_123
*366 FILLER_0_19_136
*367 FILLER_0_19_142
*368 FILLER_0_19_2
*369 FILLER_0_19_200
*370 FILLER_0_19_208
*371 FILLER_0_19_234
*372 FILLER_0_19_266
*373 FILLER_0_19_274
*374 FILLER_0_19_278
*375 FILLER_0_19_282
*376 FILLER_0_19_314
*377 FILLER_0_19_322
*378 FILLER_0_19_66
*379 FILLER_0_19_72
*380 FILLER_0_1_136
*381 FILLER_0_1_142
*382 FILLER_0_1_174
*383 FILLER_0_1_2
*384 FILLER_0_1_201
*385 FILLER_0_1_209
*386 FILLER_0_1_212
*387 FILLER_0_1_216
*388 FILLER_0_1_243
*389 FILLER_0_1_275
*390 FILLER_0_1_279
*391 FILLER_0_1_282
*392 FILLER_0_1_346
*393 FILLER_0_1_348
*394 FILLER_0_1_66
*395 FILLER_0_1_72
*396 FILLER_0_20_113
*397 FILLER_0_20_117
*398 FILLER_0_20_124
*399 FILLER_0_20_133
*400 FILLER_0_20_135
*401 FILLER_0_20_142
*402 FILLER_0_20_144
*403 FILLER_0_20_149
*404 FILLER_0_20_157
*405 FILLER_0_20_172
*406 FILLER_0_20_174
*407 FILLER_0_20_2
*408 FILLER_0_20_228
*409 FILLER_0_20_232
*410 FILLER_0_20_240
*411 FILLER_0_20_244
*412 FILLER_0_20_251
*413 FILLER_0_20_317
*414 FILLER_0_20_34
*415 FILLER_0_20_37
*416 FILLER_0_20_69
*417 FILLER_0_20_73
*418 FILLER_0_20_75
*419 FILLER_0_21_125
*420 FILLER_0_21_129
*421 FILLER_0_21_131
*422 FILLER_0_21_142
*423 FILLER_0_21_146
*424 FILLER_0_21_155
*425 FILLER_0_21_157
*426 FILLER_0_21_2
*427 FILLER_0_21_219
*428 FILLER_0_21_223
*429 FILLER_0_21_225
*430 FILLER_0_21_255
*431 FILLER_0_21_259
*432 FILLER_0_21_275
*433 FILLER_0_21_279
*434 FILLER_0_21_282
*435 FILLER_0_21_346
*436 FILLER_0_21_348
*437 FILLER_0_21_66
*438 FILLER_0_21_72
*439 FILLER_0_21_80
*440 FILLER_0_22_101
*441 FILLER_0_22_107
*442 FILLER_0_22_111
*443 FILLER_0_22_113
*444 FILLER_0_22_122
*445 FILLER_0_22_128
*446 FILLER_0_22_132
*447 FILLER_0_22_172
*448 FILLER_0_22_174
*449 FILLER_0_22_191
*450 FILLER_0_22_193
*451 FILLER_0_22_2
*452 FILLER_0_22_244
*453 FILLER_0_22_247
*454 FILLER_0_22_311
*455 FILLER_0_22_317
*456 FILLER_0_22_321
*457 FILLER_0_22_34
*458 FILLER_0_22_37
*459 FILLER_0_23_136
*460 FILLER_0_23_2
*461 FILLER_0_23_200
*462 FILLER_0_23_209
*463 FILLER_0_23_212
*464 FILLER_0_23_238
*465 FILLER_0_23_270
*466 FILLER_0_23_278
*467 FILLER_0_23_282
*468 FILLER_0_23_314
*469 FILLER_0_23_322
*470 FILLER_0_23_66
*471 FILLER_0_23_72
*472 FILLER_0_24_101
*473 FILLER_0_24_107
*474 FILLER_0_24_123
*475 FILLER_0_24_127
*476 FILLER_0_24_133
*477 FILLER_0_24_137
*478 FILLER_0_24_139
*479 FILLER_0_24_142
*480 FILLER_0_24_144
*481 FILLER_0_24_162
*482 FILLER_0_24_2
*483 FILLER_0_24_204
*484 FILLER_0_24_214
*485 FILLER_0_24_218
*486 FILLER_0_24_225
*487 FILLER_0_24_237
*488 FILLER_0_24_247
*489 FILLER_0_24_311
*490 FILLER_0_24_317
*491 FILLER_0_24_34
*492 FILLER_0_24_37
*493 FILLER_0_25_104
*494 FILLER_0_25_108
*495 FILLER_0_25_110
*496 FILLER_0_25_153
*497 FILLER_0_25_155
*498 FILLER_0_25_188
*499 FILLER_0_25_196
*500 FILLER_0_25_2
*501 FILLER_0_25_205
*502 FILLER_0_25_209
*503 FILLER_0_25_270
*504 FILLER_0_25_278
*505 FILLER_0_25_282
*506 FILLER_0_25_314
*507 FILLER_0_25_322
*508 FILLER_0_25_66
*509 FILLER_0_25_72
*510 FILLER_0_25_88
*511 FILLER_0_25_96
*512 FILLER_0_25_98
*513 FILLER_0_26_115
*514 FILLER_0_26_131
*515 FILLER_0_26_139
*516 FILLER_0_26_143
*517 FILLER_0_26_145
*518 FILLER_0_26_177
*519 FILLER_0_26_185
*520 FILLER_0_26_189
*521 FILLER_0_26_219
*522 FILLER_0_26_223
*523 FILLER_0_26_239
*524 FILLER_0_26_243
*525 FILLER_0_26_247
*526 FILLER_0_26_28
*527 FILLER_0_26_311
*528 FILLER_0_26_317
*529 FILLER_0_26_32
*530 FILLER_0_26_321
*531 FILLER_0_26_34
*532 FILLER_0_26_37
*533 FILLER_0_26_69
*534 FILLER_0_26_73
*535 FILLER_0_26_75
*536 FILLER_0_27_110
*537 FILLER_0_27_114
*538 FILLER_0_27_130
*539 FILLER_0_27_138
*540 FILLER_0_27_142
*541 FILLER_0_27_158
*542 FILLER_0_27_162
*543 FILLER_0_27_169
*544 FILLER_0_27_206
*545 FILLER_0_27_212
*546 FILLER_0_27_276
*547 FILLER_0_27_28
*548 FILLER_0_27_282
*549 FILLER_0_27_314
*550 FILLER_0_27_322
*551 FILLER_0_27_60
*552 FILLER_0_27_68
*553 FILLER_0_27_72
*554 FILLER_0_27_80
*555 FILLER_0_28_104
*556 FILLER_0_28_112
*557 FILLER_0_28_114
*558 FILLER_0_28_120
*559 FILLER_0_28_124
*560 FILLER_0_28_126
*561 FILLER_0_28_146
*562 FILLER_0_28_156
*563 FILLER_0_28_172
*564 FILLER_0_28_174
*565 FILLER_0_28_190
*566 FILLER_0_28_222
*567 FILLER_0_28_238
*568 FILLER_0_28_242
*569 FILLER_0_28_244
*570 FILLER_0_28_247
*571 FILLER_0_28_28
*572 FILLER_0_28_311
*573 FILLER_0_28_317
*574 FILLER_0_28_32
*575 FILLER_0_28_34
*576 FILLER_0_28_37
*577 FILLER_0_28_69
*578 FILLER_0_28_85
*579 FILLER_0_28_93
*580 FILLER_0_28_97
*581 FILLER_0_29_104
*582 FILLER_0_29_108
*583 FILLER_0_29_110
*584 FILLER_0_29_142
*585 FILLER_0_29_146
*586 FILLER_0_29_164
*587 FILLER_0_29_166
*588 FILLER_0_29_196
*589 FILLER_0_29_2
*590 FILLER_0_29_200
*591 FILLER_0_29_208
*592 FILLER_0_29_212
*593 FILLER_0_29_276
*594 FILLER_0_29_282
*595 FILLER_0_29_346
*596 FILLER_0_29_348
*597 FILLER_0_29_66
*598 FILLER_0_29_72
*599 FILLER_0_2_101
*600 FILLER_0_2_107
*601 FILLER_0_2_171
*602 FILLER_0_2_177
*603 FILLER_0_2_2
*604 FILLER_0_2_241
*605 FILLER_0_2_247
*606 FILLER_0_2_311
*607 FILLER_0_2_317
*608 FILLER_0_2_34
*609 FILLER_0_2_37
*610 FILLER_0_30_101
*611 FILLER_0_30_107
*612 FILLER_0_30_111
*613 FILLER_0_30_117
*614 FILLER_0_30_167
*615 FILLER_0_30_173
*616 FILLER_0_30_186
*617 FILLER_0_30_191
*618 FILLER_0_30_199
*619 FILLER_0_30_201
*620 FILLER_0_30_204
*621 FILLER_0_30_236
*622 FILLER_0_30_244
*623 FILLER_0_30_247
*624 FILLER_0_30_28
*625 FILLER_0_30_311
*626 FILLER_0_30_317
*627 FILLER_0_30_32
*628 FILLER_0_30_34
*629 FILLER_0_30_37
*630 FILLER_0_31_124
*631 FILLER_0_31_128
*632 FILLER_0_31_136
*633 FILLER_0_31_171
*634 FILLER_0_31_2
*635 FILLER_0_31_208
*636 FILLER_0_31_212
*637 FILLER_0_31_276
*638 FILLER_0_31_282
*639 FILLER_0_31_346
*640 FILLER_0_31_348
*641 FILLER_0_31_66
*642 FILLER_0_31_72
*643 FILLER_0_31_88
*644 FILLER_0_31_92
*645 FILLER_0_31_94
*646 FILLER_0_32_101
*647 FILLER_0_32_107
*648 FILLER_0_32_139
*649 FILLER_0_32_152
*650 FILLER_0_32_159
*651 FILLER_0_32_165
*652 FILLER_0_32_173
*653 FILLER_0_32_177
*654 FILLER_0_32_2
*655 FILLER_0_32_241
*656 FILLER_0_32_247
*657 FILLER_0_32_311
*658 FILLER_0_32_317
*659 FILLER_0_32_34
*660 FILLER_0_32_37
*661 FILLER_0_33_136
*662 FILLER_0_33_142
*663 FILLER_0_33_2
*664 FILLER_0_33_206
*665 FILLER_0_33_212
*666 FILLER_0_33_276
*667 FILLER_0_33_282
*668 FILLER_0_33_346
*669 FILLER_0_33_348
*670 FILLER_0_33_66
*671 FILLER_0_33_72
*672 FILLER_0_34_101
*673 FILLER_0_34_107
*674 FILLER_0_34_171
*675 FILLER_0_34_177
*676 FILLER_0_34_2
*677 FILLER_0_34_241
*678 FILLER_0_34_247
*679 FILLER_0_34_311
*680 FILLER_0_34_317
*681 FILLER_0_34_34
*682 FILLER_0_34_37
*683 FILLER_0_35_136
*684 FILLER_0_35_142
*685 FILLER_0_35_2
*686 FILLER_0_35_206
*687 FILLER_0_35_212
*688 FILLER_0_35_276
*689 FILLER_0_35_282
*690 FILLER_0_35_346
*691 FILLER_0_35_348
*692 FILLER_0_35_66
*693 FILLER_0_35_72
*694 FILLER_0_36_101
*695 FILLER_0_36_107
*696 FILLER_0_36_171
*697 FILLER_0_36_177
*698 FILLER_0_36_2
*699 FILLER_0_36_241
*700 FILLER_0_36_247
*701 FILLER_0_36_311
*702 FILLER_0_36_317
*703 FILLER_0_36_34
*704 FILLER_0_36_37
*705 FILLER_0_37_136
*706 FILLER_0_37_142
*707 FILLER_0_37_2
*708 FILLER_0_37_206
*709 FILLER_0_37_212
*710 FILLER_0_37_276
*711 FILLER_0_37_282
*712 FILLER_0_37_346
*713 FILLER_0_37_348
*714 FILLER_0_37_66
*715 FILLER_0_37_72
*716 FILLER_0_38_101
*717 FILLER_0_38_107
*718 FILLER_0_38_171
*719 FILLER_0_38_177
*720 FILLER_0_38_2
*721 FILLER_0_38_241
*722 FILLER_0_38_247
*723 FILLER_0_38_311
*724 FILLER_0_38_317
*725 FILLER_0_38_34
*726 FILLER_0_38_37
*727 FILLER_0_39_136
*728 FILLER_0_39_142
*729 FILLER_0_39_2
*730 FILLER_0_39_206
*731 FILLER_0_39_212
*732 FILLER_0_39_276
*733 FILLER_0_39_282
*734 FILLER_0_39_346
*735 FILLER_0_39_348
*736 FILLER_0_39_66
*737 FILLER_0_39_72
*738 FILLER_0_3_136
*739 FILLER_0_3_142
*740 FILLER_0_3_2
*741 FILLER_0_3_206
*742 FILLER_0_3_212
*743 FILLER_0_3_276
*744 FILLER_0_3_282
*745 FILLER_0_3_346
*746 FILLER_0_3_348
*747 FILLER_0_3_66
*748 FILLER_0_3_72
*749 FILLER_0_40_101
*750 FILLER_0_40_107
*751 FILLER_0_40_171
*752 FILLER_0_40_177
*753 FILLER_0_40_2
*754 FILLER_0_40_241
*755 FILLER_0_40_247
*756 FILLER_0_40_311
*757 FILLER_0_40_317
*758 FILLER_0_40_34
*759 FILLER_0_40_37
*760 FILLER_0_41_136
*761 FILLER_0_41_142
*762 FILLER_0_41_2
*763 FILLER_0_41_206
*764 FILLER_0_41_212
*765 FILLER_0_41_276
*766 FILLER_0_41_282
*767 FILLER_0_41_346
*768 FILLER_0_41_348
*769 FILLER_0_41_66
*770 FILLER_0_41_72
*771 FILLER_0_42_101
*772 FILLER_0_42_107
*773 FILLER_0_42_139
*774 FILLER_0_42_143
*775 FILLER_0_42_171
*776 FILLER_0_42_177
*777 FILLER_0_42_193
*778 FILLER_0_42_197
*779 FILLER_0_42_22
*780 FILLER_0_42_225
*781 FILLER_0_42_241
*782 FILLER_0_42_247
*783 FILLER_0_42_30
*784 FILLER_0_42_311
*785 FILLER_0_42_317
*786 FILLER_0_42_34
*787 FILLER_0_42_37
*788 FILLER_0_42_6
*789 FILLER_0_43_136
*790 FILLER_0_43_142
*791 FILLER_0_43_150
*792 FILLER_0_43_155
*793 FILLER_0_43_189
*794 FILLER_0_43_2
*795 FILLER_0_43_205
*796 FILLER_0_43_209
*797 FILLER_0_43_212
*798 FILLER_0_43_276
*799 FILLER_0_43_282
*800 FILLER_0_43_346
*801 FILLER_0_43_348
*802 FILLER_0_43_66
*803 FILLER_0_43_72
*804 FILLER_0_44_104
*805 FILLER_0_44_138
*806 FILLER_0_44_142
*807 FILLER_0_44_172
*808 FILLER_0_44_176
*809 FILLER_0_44_2
*810 FILLER_0_44_236
*811 FILLER_0_44_240
*812 FILLER_0_44_274
*813 FILLER_0_44_308
*814 FILLER_0_44_342
*815 FILLER_0_44_346
*816 FILLER_0_44_348
*817 FILLER_0_44_36
*818 FILLER_0_44_70
*819 FILLER_0_4_101
*820 FILLER_0_4_107
*821 FILLER_0_4_171
*822 FILLER_0_4_177
*823 FILLER_0_4_2
*824 FILLER_0_4_241
*825 FILLER_0_4_247
*826 FILLER_0_4_311
*827 FILLER_0_4_317
*828 FILLER_0_4_34
*829 FILLER_0_4_37
*830 FILLER_0_5_136
*831 FILLER_0_5_142
*832 FILLER_0_5_2
*833 FILLER_0_5_206
*834 FILLER_0_5_212
*835 FILLER_0_5_276
*836 FILLER_0_5_282
*837 FILLER_0_5_346
*838 FILLER_0_5_348
*839 FILLER_0_5_66
*840 FILLER_0_5_72
*841 FILLER_0_6_101
*842 FILLER_0_6_107
*843 FILLER_0_6_171
*844 FILLER_0_6_177
*845 FILLER_0_6_2
*846 FILLER_0_6_241
*847 FILLER_0_6_247
*848 FILLER_0_6_311
*849 FILLER_0_6_317
*850 FILLER_0_6_34
*851 FILLER_0_6_37
*852 FILLER_0_7_136
*853 FILLER_0_7_142
*854 FILLER_0_7_2
*855 FILLER_0_7_206
*856 FILLER_0_7_212
*857 FILLER_0_7_276
*858 FILLER_0_7_282
*859 FILLER_0_7_346
*860 FILLER_0_7_348
*861 FILLER_0_7_66
*862 FILLER_0_7_72
*863 FILLER_0_8_101
*864 FILLER_0_8_107
*865 FILLER_0_8_171
*866 FILLER_0_8_177
*867 FILLER_0_8_2
*868 FILLER_0_8_241
*869 FILLER_0_8_247
*870 FILLER_0_8_311
*871 FILLER_0_8_317
*872 FILLER_0_8_34
*873 FILLER_0_8_37
*874 FILLER_0_9_136
*875 FILLER_0_9_142
*876 FILLER_0_9_2
*877 FILLER_0_9_206
*878 FILLER_0_9_212
*879 FILLER_0_9_276
*880 FILLER_0_9_282
*881 FILLER_0_9_346
*882 FILLER_0_9_348
*883 FILLER_0_9_66
*884 FILLER_0_9_72
*885 PHY_EDGE_ROW_0_Left_45
*886 PHY_EDGE_ROW_0_Right_0
*887 PHY_EDGE_ROW_10_Left_55
*888 PHY_EDGE_ROW_10_Right_10
*889 PHY_EDGE_ROW_11_Left_56
*890 PHY_EDGE_ROW_11_Right_11
*891 PHY_EDGE_ROW_12_Left_57
*892 PHY_EDGE_ROW_12_Right_12
*893 PHY_EDGE_ROW_13_Left_58
*894 PHY_EDGE_ROW_13_Right_13
*895 PHY_EDGE_ROW_14_Left_59
*896 PHY_EDGE_ROW_14_Right_14
*897 PHY_EDGE_ROW_15_Left_60
*898 PHY_EDGE_ROW_15_Right_15
*899 PHY_EDGE_ROW_16_Left_61
*900 PHY_EDGE_ROW_16_Right_16
*901 PHY_EDGE_ROW_17_Left_62
*902 PHY_EDGE_ROW_17_Right_17
*903 PHY_EDGE_ROW_18_Left_63
*904 PHY_EDGE_ROW_18_Right_18
*905 PHY_EDGE_ROW_19_Left_64
*906 PHY_EDGE_ROW_19_Right_19
*907 PHY_EDGE_ROW_1_Left_46
*908 PHY_EDGE_ROW_1_Right_1
*909 PHY_EDGE_ROW_20_Left_65
*910 PHY_EDGE_ROW_20_Right_20
*911 PHY_EDGE_ROW_21_Left_66
*912 PHY_EDGE_ROW_21_Right_21
*913 PHY_EDGE_ROW_22_Left_67
*914 PHY_EDGE_ROW_22_Right_22
*915 PHY_EDGE_ROW_23_Left_68
*916 PHY_EDGE_ROW_23_Right_23
*917 PHY_EDGE_ROW_24_Left_69
*918 PHY_EDGE_ROW_24_Right_24
*919 PHY_EDGE_ROW_25_Left_70
*920 PHY_EDGE_ROW_25_Right_25
*921 PHY_EDGE_ROW_26_Left_71
*922 PHY_EDGE_ROW_26_Right_26
*923 PHY_EDGE_ROW_27_Left_72
*924 PHY_EDGE_ROW_27_Right_27
*925 PHY_EDGE_ROW_28_Left_73
*926 PHY_EDGE_ROW_28_Right_28
*927 PHY_EDGE_ROW_29_Left_74
*928 PHY_EDGE_ROW_29_Right_29
*929 PHY_EDGE_ROW_2_Left_47
*930 PHY_EDGE_ROW_2_Right_2
*931 PHY_EDGE_ROW_30_Left_75
*932 PHY_EDGE_ROW_30_Right_30
*933 PHY_EDGE_ROW_31_Left_76
*934 PHY_EDGE_ROW_31_Right_31
*935 PHY_EDGE_ROW_32_Left_77
*936 PHY_EDGE_ROW_32_Right_32
*937 PHY_EDGE_ROW_33_Left_78
*938 PHY_EDGE_ROW_33_Right_33
*939 PHY_EDGE_ROW_34_Left_79
*940 PHY_EDGE_ROW_34_Right_34
*941 PHY_EDGE_ROW_35_Left_80
*942 PHY_EDGE_ROW_35_Right_35
*943 PHY_EDGE_ROW_36_Left_81
*944 PHY_EDGE_ROW_36_Right_36
*945 PHY_EDGE_ROW_37_Left_82
*946 PHY_EDGE_ROW_37_Right_37
*947 PHY_EDGE_ROW_38_Left_83
*948 PHY_EDGE_ROW_38_Right_38
*949 PHY_EDGE_ROW_39_Left_84
*950 PHY_EDGE_ROW_39_Right_39
*951 PHY_EDGE_ROW_3_Left_48
*952 PHY_EDGE_ROW_3_Right_3
*953 PHY_EDGE_ROW_40_Left_85
*954 PHY_EDGE_ROW_40_Right_40
*955 PHY_EDGE_ROW_41_Left_86
*956 PHY_EDGE_ROW_41_Right_41
*957 PHY_EDGE_ROW_42_Left_87
*958 PHY_EDGE_ROW_42_Right_42
*959 PHY_EDGE_ROW_43_Left_88
*960 PHY_EDGE_ROW_43_Right_43
*961 PHY_EDGE_ROW_44_Left_89
*962 PHY_EDGE_ROW_44_Right_44
*963 PHY_EDGE_ROW_4_Left_49
*964 PHY_EDGE_ROW_4_Right_4
*965 PHY_EDGE_ROW_5_Left_50
*966 PHY_EDGE_ROW_5_Right_5
*967 PHY_EDGE_ROW_6_Left_51
*968 PHY_EDGE_ROW_6_Right_6
*969 PHY_EDGE_ROW_7_Left_52
*970 PHY_EDGE_ROW_7_Right_7
*971 PHY_EDGE_ROW_8_Left_53
*972 PHY_EDGE_ROW_8_Right_8
*973 PHY_EDGE_ROW_9_Left_54
*974 PHY_EDGE_ROW_9_Right_9
*975 TAP_TAPCELL_ROW_0_90
*976 TAP_TAPCELL_ROW_0_91
*977 TAP_TAPCELL_ROW_0_92
*978 TAP_TAPCELL_ROW_0_93
*979 TAP_TAPCELL_ROW_0_94
*980 TAP_TAPCELL_ROW_0_95
*981 TAP_TAPCELL_ROW_0_96
*982 TAP_TAPCELL_ROW_0_97
*983 TAP_TAPCELL_ROW_0_98
*984 TAP_TAPCELL_ROW_0_99
*985 TAP_TAPCELL_ROW_10_140
*986 TAP_TAPCELL_ROW_10_141
*987 TAP_TAPCELL_ROW_10_142
*988 TAP_TAPCELL_ROW_10_143
*989 TAP_TAPCELL_ROW_10_144
*990 TAP_TAPCELL_ROW_11_145
*991 TAP_TAPCELL_ROW_11_146
*992 TAP_TAPCELL_ROW_11_147
*993 TAP_TAPCELL_ROW_11_148
*994 TAP_TAPCELL_ROW_12_149
*995 TAP_TAPCELL_ROW_12_150
*996 TAP_TAPCELL_ROW_12_151
*997 TAP_TAPCELL_ROW_12_152
*998 TAP_TAPCELL_ROW_12_153
*999 TAP_TAPCELL_ROW_13_154
*1000 TAP_TAPCELL_ROW_13_155
*1001 TAP_TAPCELL_ROW_13_156
*1002 TAP_TAPCELL_ROW_13_157
*1003 TAP_TAPCELL_ROW_14_158
*1004 TAP_TAPCELL_ROW_14_159
*1005 TAP_TAPCELL_ROW_14_160
*1006 TAP_TAPCELL_ROW_14_161
*1007 TAP_TAPCELL_ROW_14_162
*1008 TAP_TAPCELL_ROW_15_163
*1009 TAP_TAPCELL_ROW_15_164
*1010 TAP_TAPCELL_ROW_15_165
*1011 TAP_TAPCELL_ROW_15_166
*1012 TAP_TAPCELL_ROW_16_167
*1013 TAP_TAPCELL_ROW_16_168
*1014 TAP_TAPCELL_ROW_16_169
*1015 TAP_TAPCELL_ROW_16_170
*1016 TAP_TAPCELL_ROW_16_171
*1017 TAP_TAPCELL_ROW_17_172
*1018 TAP_TAPCELL_ROW_17_173
*1019 TAP_TAPCELL_ROW_17_174
*1020 TAP_TAPCELL_ROW_17_175
*1021 TAP_TAPCELL_ROW_18_176
*1022 TAP_TAPCELL_ROW_18_177
*1023 TAP_TAPCELL_ROW_18_178
*1024 TAP_TAPCELL_ROW_18_179
*1025 TAP_TAPCELL_ROW_18_180
*1026 TAP_TAPCELL_ROW_19_181
*1027 TAP_TAPCELL_ROW_19_182
*1028 TAP_TAPCELL_ROW_19_183
*1029 TAP_TAPCELL_ROW_19_184
*1030 TAP_TAPCELL_ROW_1_100
*1031 TAP_TAPCELL_ROW_1_101
*1032 TAP_TAPCELL_ROW_1_102
*1033 TAP_TAPCELL_ROW_1_103
*1034 TAP_TAPCELL_ROW_20_185
*1035 TAP_TAPCELL_ROW_20_186
*1036 TAP_TAPCELL_ROW_20_187
*1037 TAP_TAPCELL_ROW_20_188
*1038 TAP_TAPCELL_ROW_20_189
*1039 TAP_TAPCELL_ROW_21_190
*1040 TAP_TAPCELL_ROW_21_191
*1041 TAP_TAPCELL_ROW_21_192
*1042 TAP_TAPCELL_ROW_21_193
*1043 TAP_TAPCELL_ROW_22_194
*1044 TAP_TAPCELL_ROW_22_195
*1045 TAP_TAPCELL_ROW_22_196
*1046 TAP_TAPCELL_ROW_22_197
*1047 TAP_TAPCELL_ROW_22_198
*1048 TAP_TAPCELL_ROW_23_199
*1049 TAP_TAPCELL_ROW_23_200
*1050 TAP_TAPCELL_ROW_23_201
*1051 TAP_TAPCELL_ROW_23_202
*1052 TAP_TAPCELL_ROW_24_203
*1053 TAP_TAPCELL_ROW_24_204
*1054 TAP_TAPCELL_ROW_24_205
*1055 TAP_TAPCELL_ROW_24_206
*1056 TAP_TAPCELL_ROW_24_207
*1057 TAP_TAPCELL_ROW_25_208
*1058 TAP_TAPCELL_ROW_25_209
*1059 TAP_TAPCELL_ROW_25_210
*1060 TAP_TAPCELL_ROW_25_211
*1061 TAP_TAPCELL_ROW_26_212
*1062 TAP_TAPCELL_ROW_26_213
*1063 TAP_TAPCELL_ROW_26_214
*1064 TAP_TAPCELL_ROW_26_215
*1065 TAP_TAPCELL_ROW_26_216
*1066 TAP_TAPCELL_ROW_27_217
*1067 TAP_TAPCELL_ROW_27_218
*1068 TAP_TAPCELL_ROW_27_219
*1069 TAP_TAPCELL_ROW_27_220
*1070 TAP_TAPCELL_ROW_28_221
*1071 TAP_TAPCELL_ROW_28_222
*1072 TAP_TAPCELL_ROW_28_223
*1073 TAP_TAPCELL_ROW_28_224
*1074 TAP_TAPCELL_ROW_28_225
*1075 TAP_TAPCELL_ROW_29_226
*1076 TAP_TAPCELL_ROW_29_227
*1077 TAP_TAPCELL_ROW_29_228
*1078 TAP_TAPCELL_ROW_29_229
*1079 TAP_TAPCELL_ROW_2_104
*1080 TAP_TAPCELL_ROW_2_105
*1081 TAP_TAPCELL_ROW_2_106
*1082 TAP_TAPCELL_ROW_2_107
*1083 TAP_TAPCELL_ROW_2_108
*1084 TAP_TAPCELL_ROW_30_230
*1085 TAP_TAPCELL_ROW_30_231
*1086 TAP_TAPCELL_ROW_30_232
*1087 TAP_TAPCELL_ROW_30_233
*1088 TAP_TAPCELL_ROW_30_234
*1089 TAP_TAPCELL_ROW_31_235
*1090 TAP_TAPCELL_ROW_31_236
*1091 TAP_TAPCELL_ROW_31_237
*1092 TAP_TAPCELL_ROW_31_238
*1093 TAP_TAPCELL_ROW_32_239
*1094 TAP_TAPCELL_ROW_32_240
*1095 TAP_TAPCELL_ROW_32_241
*1096 TAP_TAPCELL_ROW_32_242
*1097 TAP_TAPCELL_ROW_32_243
*1098 TAP_TAPCELL_ROW_33_244
*1099 TAP_TAPCELL_ROW_33_245
*1100 TAP_TAPCELL_ROW_33_246
*1101 TAP_TAPCELL_ROW_33_247
*1102 TAP_TAPCELL_ROW_34_248
*1103 TAP_TAPCELL_ROW_34_249
*1104 TAP_TAPCELL_ROW_34_250
*1105 TAP_TAPCELL_ROW_34_251
*1106 TAP_TAPCELL_ROW_34_252
*1107 TAP_TAPCELL_ROW_35_253
*1108 TAP_TAPCELL_ROW_35_254
*1109 TAP_TAPCELL_ROW_35_255
*1110 TAP_TAPCELL_ROW_35_256
*1111 TAP_TAPCELL_ROW_36_257
*1112 TAP_TAPCELL_ROW_36_258
*1113 TAP_TAPCELL_ROW_36_259
*1114 TAP_TAPCELL_ROW_36_260
*1115 TAP_TAPCELL_ROW_36_261
*1116 TAP_TAPCELL_ROW_37_262
*1117 TAP_TAPCELL_ROW_37_263
*1118 TAP_TAPCELL_ROW_37_264
*1119 TAP_TAPCELL_ROW_37_265
*1120 TAP_TAPCELL_ROW_38_266
*1121 TAP_TAPCELL_ROW_38_267
*1122 TAP_TAPCELL_ROW_38_268
*1123 TAP_TAPCELL_ROW_38_269
*1124 TAP_TAPCELL_ROW_38_270
*1125 TAP_TAPCELL_ROW_39_271
*1126 TAP_TAPCELL_ROW_39_272
*1127 TAP_TAPCELL_ROW_39_273
*1128 TAP_TAPCELL_ROW_39_274
*1129 TAP_TAPCELL_ROW_3_109
*1130 TAP_TAPCELL_ROW_3_110
*1131 TAP_TAPCELL_ROW_3_111
*1132 TAP_TAPCELL_ROW_3_112
*1133 TAP_TAPCELL_ROW_40_275
*1134 TAP_TAPCELL_ROW_40_276
*1135 TAP_TAPCELL_ROW_40_277
*1136 TAP_TAPCELL_ROW_40_278
*1137 TAP_TAPCELL_ROW_40_279
*1138 TAP_TAPCELL_ROW_41_280
*1139 TAP_TAPCELL_ROW_41_281
*1140 TAP_TAPCELL_ROW_41_282
*1141 TAP_TAPCELL_ROW_41_283
*1142 TAP_TAPCELL_ROW_42_284
*1143 TAP_TAPCELL_ROW_42_285
*1144 TAP_TAPCELL_ROW_42_286
*1145 TAP_TAPCELL_ROW_42_287
*1146 TAP_TAPCELL_ROW_42_288
*1147 TAP_TAPCELL_ROW_43_289
*1148 TAP_TAPCELL_ROW_43_290
*1149 TAP_TAPCELL_ROW_43_291
*1150 TAP_TAPCELL_ROW_43_292
*1151 TAP_TAPCELL_ROW_44_293
*1152 TAP_TAPCELL_ROW_44_294
*1153 TAP_TAPCELL_ROW_44_295
*1154 TAP_TAPCELL_ROW_44_296
*1155 TAP_TAPCELL_ROW_44_297
*1156 TAP_TAPCELL_ROW_44_298
*1157 TAP_TAPCELL_ROW_44_299
*1158 TAP_TAPCELL_ROW_44_300
*1159 TAP_TAPCELL_ROW_44_301
*1160 TAP_TAPCELL_ROW_44_302
*1161 TAP_TAPCELL_ROW_4_113
*1162 TAP_TAPCELL_ROW_4_114
*1163 TAP_TAPCELL_ROW_4_115
*1164 TAP_TAPCELL_ROW_4_116
*1165 TAP_TAPCELL_ROW_4_117
*1166 TAP_TAPCELL_ROW_5_118
*1167 TAP_TAPCELL_ROW_5_119
*1168 TAP_TAPCELL_ROW_5_120
*1169 TAP_TAPCELL_ROW_5_121
*1170 TAP_TAPCELL_ROW_6_122
*1171 TAP_TAPCELL_ROW_6_123
*1172 TAP_TAPCELL_ROW_6_124
*1173 TAP_TAPCELL_ROW_6_125
*1174 TAP_TAPCELL_ROW_6_126
*1175 TAP_TAPCELL_ROW_7_127
*1176 TAP_TAPCELL_ROW_7_128
*1177 TAP_TAPCELL_ROW_7_129
*1178 TAP_TAPCELL_ROW_7_130
*1179 TAP_TAPCELL_ROW_8_131
*1180 TAP_TAPCELL_ROW_8_132
*1181 TAP_TAPCELL_ROW_8_133
*1182 TAP_TAPCELL_ROW_8_134
*1183 TAP_TAPCELL_ROW_8_135
*1184 TAP_TAPCELL_ROW_9_136
*1185 TAP_TAPCELL_ROW_9_137
*1186 TAP_TAPCELL_ROW_9_138
*1187 TAP_TAPCELL_ROW_9_139
*1188 _106_
*1189 _107_
*1190 _108_
*1191 _109_
*1192 _110_
*1193 _111_
*1194 _112_
*1195 _113_
*1196 _114_
*1197 _115_
*1198 _116_
*1199 _117_
*1200 _118_
*1201 _119_
*1202 _120_
*1203 _121_
*1204 _122_
*1205 _123_
*1206 _124_
*1207 _125_
*1208 _126_
*1209 _127_
*1210 _128_
*1211 _129_
*1212 _130_
*1213 _131_
*1214 _132_
*1215 _133_
*1216 _134_
*1217 _135_
*1218 _136_
*1219 _137_
*1220 _138_
*1221 _139_
*1222 _140_
*1223 _141_
*1224 _142_
*1225 _143_
*1226 _144_
*1227 _145_
*1228 _146_
*1229 _147_
*1230 _148_
*1231 _149_
*1232 _150_
*1233 _151_
*1234 _152_
*1235 _153_
*1236 _154_
*1237 _155_
*1238 _156_
*1239 _157_
*1240 _158_
*1241 _159_
*1242 _160_
*1243 _161_
*1244 _162_
*1245 _163_
*1246 _164_
*1247 _165_
*1248 _166_
*1249 _167_
*1250 _168_
*1251 _169_
*1252 _170_
*1253 _171_
*1254 _172_
*1255 _173_
*1256 _174_
*1257 _175_
*1258 _176_
*1259 _177_
*1260 _178_
*1261 _179_
*1262 _180_
*1263 _181_
*1264 _182_
*1265 _183_
*1266 _184_
*1267 _185_
*1268 _186_
*1269 _187_
*1270 _188_
*1271 _189_
*1272 _190_
*1273 _191_
*1274 _192_
*1275 _193_
*1276 _194_
*1277 _195_
*1278 _196_
*1279 _197_
*1280 _198_
*1281 _199_
*1282 _200_
*1283 _201_
*1284 _202_
*1285 _203_
*1286 _204_
*1287 _205_
*1288 _206_
*1289 _207_
*1290 _208_
*1291 _209_
*1292 _210_
*1293 _211_
*1294 _212_
*1295 _213_
*1296 _214_
*1297 _215_
*1298 _216_
*1299 _217_
*1300 _218_
*1301 _219_
*1302 _220_
*1303 _221_
*1304 _222_
*1305 _223_
*1306 _224_
*1307 _225_
*1308 _226_
*1309 _227_
*1310 _228_
*1311 _229_
*1312 _230_
*1313 _231_
*1314 _232_
*1315 _233_
*1316 _234_
*1317 _235_
*1318 _236_
*1319 _241_
*1320 clkbuf_0_clk
*1321 clkbuf_1_0__f_clk
*1322 clkbuf_1_1__f_clk
*1323 ita4_23
*1324 ita4_24
*1325 ita4_25
*1326 ita4_26
*1327 output1
*1328 output10
*1329 output11
*1330 output12
*1331 output13
*1332 output14
*1333 output15
*1334 output16
*1335 output17
*1336 output18
*1337 output19
*1338 output2
*1339 output20
*1340 output21
*1341 output22
*1342 output3
*1343 output4
*1344 output5
*1345 output6
*1346 output7
*1347 output8
*1348 output9

*PORTS
clk I
segm[0] O
segm[10] O
segm[11] O
segm[12] O
segm[13] O
segm[1] O
segm[2] O
segm[3] O
segm[4] O
segm[5] O
segm[6] O
segm[7] O
segm[8] O
segm[9] O
sel[0] O
sel[10] O
sel[11] O
sel[1] O
sel[2] O
sel[3] O
sel[4] O
sel[5] O
sel[6] O
sel[7] O
sel[8] O
sel[9] O

*D_NET *1 0.0150245
*CONN
*P clk I
*I *1320:I I *D gf180mcu_fd_sc_mcu7t5v0__clkbuf_16
*I *190:I I *D gf180mcu_fd_sc_mcu7t5v0__antenna
*CAP
1 clk 0.00257116
2 *1320:I 7.66408e-05
3 *190:I 0
4 *1:13 0.00267035
5 *1:11 0.00516487
6 *1320:I *101:23 2.39814e-05
7 *1320:I *124:10 4.71078e-05
8 *1:11 sel[3] 6.94814e-05
9 *1:13 *1188:I 0
10 *1:13 *1253:A2 0
11 *1:13 *1296:D 1.36885e-05
12 *1:13 *1297:D 0
13 *1:13 *1297:CLK 0.000604092
14 *1:13 *47:17 0
15 *1:13 *60:10 0
16 *1:13 *97:10 0
17 *1:13 *101:10 0.000237101
18 *1:13 *101:23 8.76817e-06
19 *1:13 *107:23 0
20 *1:13 *108:12 0
21 *1:13 *109:21 0
22 *1:13 *109:34 0
23 *1:13 *124:10 0.000118378
24 *1:13 *137:82 0.000612286
25 *1:13 *137:84 0.00210332
26 *1:13 *139:10 0.000653857
27 *1:13 *140:12 4.9409e-05
*RES
1 clk *1:11 26.955 
2 *1:11 *1:13 24.03 
3 *1:13 *190:I 9 
4 *1:13 *1320:I 9.81 
*END

*D_NET *2 0.00150591
*CONN
*P segm[0] O
*I *1323:ZN O *D gf180mcu_fd_sc_mcu7t5v0__tiel
*CAP
1 segm[0] 0.000752957
2 *1323:ZN 0.000752957
*RES
1 *1323:ZN segm[0] 19.035 
*END

*D_NET *3 0.00213941
*CONN
*P segm[10] O
*I *1327:Z O *D gf180mcu_fd_sc_mcu7t5v0__buf_8
*CAP
1 segm[10] 0.000939831
2 *1327:Z 0.000939831
3 segm[10] segm[13] 0.000212086
4 segm[10] *1343:I 4.76605e-05
*RES
1 *1327:Z segm[10] 21.015 
*END

*D_NET *4 0.000941763
*CONN
*P segm[11] O
*I *1338:Z O *D gf180mcu_fd_sc_mcu7t5v0__buf_8
*CAP
1 segm[11] 0.000422495
2 *1338:Z 0.000422495
3 segm[11] sel[9] 9.67726e-05
*RES
1 *1338:Z segm[11] 12.195 
*END

*D_NET *5 0.00144223
*CONN
*P segm[12] O
*I *1342:Z O *D gf180mcu_fd_sc_mcu7t5v0__buf_8
*CAP
1 segm[12] 0.000651741
2 *1342:Z 0.000651741
3 segm[12] segm[4] 0.00013875
*RES
1 *1342:Z segm[12] 9.855 
*END

*D_NET *6 0.00177189
*CONN
*P segm[13] O
*I *1343:Z O *D gf180mcu_fd_sc_mcu7t5v0__buf_8
*CAP
1 segm[13] 0.000726634
2 *1343:Z 0.000726634
3 segm[13] *1343:I 0.000106536
4 segm[10] segm[13] 0.000212086
*RES
1 *1343:Z segm[13] 19.755 
*END

*D_NET *7 0.00282031
*CONN
*P segm[1] O
*I *1344:Z O *D gf180mcu_fd_sc_mcu7t5v0__buf_8
*CAP
1 segm[1] 0.00116236
2 *1344:Z 0.00116236