*SPEF "ieee 1481-1999"
*DESIGN "ita41"
*DATE "11:11:11 Fri 11 11, 1111"
*VENDOR "OpenRCX"
*PROGRAM "Parallel Extraction"
*VERSION "1.0"
*DESIGN_FLOW "NAME_SCOPE LOCAL" "PIN_CAP NONE"
*DIVIDER /
*DELIMITER :
*BUS_DELIMITER []
*T_UNIT 1 NS
*C_UNIT 1 PF
*R_UNIT 1 OHM
*L_UNIT 1 HENRY

*NAME_MAP
*1 clk
*2 net25
*3 segm[10]
*4 segm[11]
*5 segm[12]
*6 segm[13]
*7 segm[1]
*8 segm[2]
*9 net26
*10 segm[4]
*11 segm[5]
*12 segm[6]
*13 segm[7]
*14 segm[8]
*15 segm[9]
*16 sel[0]
*17 sel[10]
*18 sel[11]
*19 sel[1]
*20 sel[2]
*21 sel[3]
*22 sel[4]
*23 sel[5]
*24 sel[6]
*25 sel[7]
*26 sel[8]
*27 sel[9]
*30 _000_
*31 _001_
*32 _002_
*33 _003_
*34 _004_
*35 _005_
*36 _006_
*37 _007_
*38 _008_
*39 _009_
*40 _010_
*41 _011_
*42 _012_
*43 _013_
*44 _014_
*45 _015_
*46 _016_
*47 _017_
*48 _018_
*49 _019_
*50 _020_
*51 _021_
*52 _022_
*53 _023_
*54 _024_
*55 _025_
*56 _026_
*57 _027_
*58 _028_
*59 _029_
*60 _030_
*61 _031_
*62 _032_
*63 _033_
*64 _034_
*65 _035_
*66 _036_
*67 _037_
*68 _038_
*69 _039_
*70 _040_
*71 _041_
*72 _042_
*73 _043_
*74 _044_
*75 _045_
*76 _046_
*77 _047_
*78 _048_
*79 _049_
*80 _050_
*81 _051_
*82 _052_
*83 _053_
*84 _054_
*85 _055_
*86 _056_
*87 _057_
*88 _058_
*89 _059_
*90 _060_
*91 _061_
*92 _062_
*93 _063_
*94 _064_
*95 _065_
*96 _066_
*97 _067_
*98 _068_
*99 _069_
*100 _070_
*101 _071_
*102 _072_
*103 _073_
*104 _074_
*105 _075_
*106 _076_
*107 _077_
*108 _078_
*109 _079_
*110 _080_
*111 _081_
*112 _082_
*113 _083_
*114 _084_
*115 _085_
*116 _086_
*117 clknet_0_clk
*118 clknet_1_0__leaf_clk
*119 clknet_1_1__leaf_clk
*120 dut41\.count\[0\]
*121 dut41\.count\[1\]
*122 dut41\.count\[2\]
*123 dut41\.count\[3\]
*124 net1
*125 net10
*126 net11
*127 net12
*128 net13
*129 net14
*130 net15
*131 net16
*132 net17
*133 net18
*134 net19
*135 net2
*136 net20
*137 net21
*138 net22
*139 net23
*140 net24
*141 net3
*142 net4
*143 net5
*144 net6
*145 net7
*146 net8
*147 net9
*148 ANTENNA__174__CLK
*149 ANTENNA__175__CLK
*150 ANTENNA__176__CLK
*151 ANTENNA__177__CLK
*152 ANTENNA__178__CLK
*153 ANTENNA__179__CLK
*154 ANTENNA__180__CLK
*155 ANTENNA__181__CLK
*156 ANTENNA__182__CLK
*157 ANTENNA__183__CLK
*158 ANTENNA__184__CLK
*159 ANTENNA__185__CLK
*160 ANTENNA__186__CLK
*161 ANTENNA__187__CLK
*162 ANTENNA__188__CLK
*163 ANTENNA__189__CLK
*164 ANTENNA__190__CLK
*165 ANTENNA__191__CLK
*166 ANTENNA__192__CLK
*167 ANTENNA__193__CLK
*168 ANTENNA__194__CLK
*169 ANTENNA__195__CLK
*170 ANTENNA_clkbuf_0_clk_I
*171 FILLER_0_0_104
*172 FILLER_0_0_138
*173 FILLER_0_0_172
*174 FILLER_0_0_176
*175 FILLER_0_0_2
*176 FILLER_0_0_232
*177 FILLER_0_0_236
*178 FILLER_0_0_240
*179 FILLER_0_0_274
*180 FILLER_0_0_308
*181 FILLER_0_0_342
*182 FILLER_0_0_346
*183 FILLER_0_0_348
*184 FILLER_0_0_36
*185 FILLER_0_0_70
*186 FILLER_0_10_101
*187 FILLER_0_10_107
*188 FILLER_0_10_171
*189 FILLER_0_10_177
*190 FILLER_0_10_2
*191 FILLER_0_10_241
*192 FILLER_0_10_247
*193 FILLER_0_10_311
*194 FILLER_0_10_317
*195 FILLER_0_10_34
*196 FILLER_0_10_37
*197 FILLER_0_11_136
*198 FILLER_0_11_142
*199 FILLER_0_11_2
*200 FILLER_0_11_206
*201 FILLER_0_11_212
*202 FILLER_0_11_276
*203 FILLER_0_11_282
*204 FILLER_0_11_346
*205 FILLER_0_11_348
*206 FILLER_0_11_66
*207 FILLER_0_11_72
*208 FILLER_0_12_101
*209 FILLER_0_12_107
*210 FILLER_0_12_171
*211 FILLER_0_12_177
*212 FILLER_0_12_2
*213 FILLER_0_12_241
*214 FILLER_0_12_247
*215 FILLER_0_12_311
*216 FILLER_0_12_317
*217 FILLER_0_12_34
*218 FILLER_0_12_37
*219 FILLER_0_13_136
*220 FILLER_0_13_142
*221 FILLER_0_13_158
*222 FILLER_0_13_191
*223 FILLER_0_13_195
*224 FILLER_0_13_2
*225 FILLER_0_13_203
*226 FILLER_0_13_207
*227 FILLER_0_13_209
*228 FILLER_0_13_212
*229 FILLER_0_13_276
*230 FILLER_0_13_282
*231 FILLER_0_13_346
*232 FILLER_0_13_348
*233 FILLER_0_13_66
*234 FILLER_0_13_72
*235 FILLER_0_14_101
*236 FILLER_0_14_107
*237 FILLER_0_14_123
*238 FILLER_0_14_127
*239 FILLER_0_14_157
*240 FILLER_0_14_161
*241 FILLER_0_14_169
*242 FILLER_0_14_173
*243 FILLER_0_14_177
*244 FILLER_0_14_2
*245 FILLER_0_14_241
*246 FILLER_0_14_247
*247 FILLER_0_14_311
*248 FILLER_0_14_317
*249 FILLER_0_14_34
*250 FILLER_0_14_37
*251 FILLER_0_15_127
*252 FILLER_0_15_131
*253 FILLER_0_15_139
*254 FILLER_0_15_142
*255 FILLER_0_15_158
*256 FILLER_0_15_166
*257 FILLER_0_15_196
*258 FILLER_0_15_2
*259 FILLER_0_15_200
*260 FILLER_0_15_208
*261 FILLER_0_15_212
*262 FILLER_0_15_276
*263 FILLER_0_15_282
*264 FILLER_0_15_346
*265 FILLER_0_15_348
*266 FILLER_0_15_66
*267 FILLER_0_15_72
*268 FILLER_0_15_88
*269 FILLER_0_15_92
*270 FILLER_0_16_101
*271 FILLER_0_16_136
*272 FILLER_0_16_140
*273 FILLER_0_16_156
*274 FILLER_0_16_164
*275 FILLER_0_16_166
*276 FILLER_0_16_191
*277 FILLER_0_16_199
*278 FILLER_0_16_2
*279 FILLER_0_16_203
*280 FILLER_0_16_205
*281 FILLER_0_16_235
*282 FILLER_0_16_239
*283 FILLER_0_16_243
*284 FILLER_0_16_247
*285 FILLER_0_16_311
*286 FILLER_0_16_317
*287 FILLER_0_16_34
*288 FILLER_0_16_37
*289 FILLER_0_17_104
*290 FILLER_0_17_120
*291 FILLER_0_17_122
*292 FILLER_0_17_133
*293 FILLER_0_17_137
*294 FILLER_0_17_139
*295 FILLER_0_17_150
*296 FILLER_0_17_158
*297 FILLER_0_17_162
*298 FILLER_0_17_164
*299 FILLER_0_17_169
*300 FILLER_0_17_177
*301 FILLER_0_17_186
*302 FILLER_0_17_202
*303 FILLER_0_17_241
*304 FILLER_0_17_245
*305 FILLER_0_17_277
*306 FILLER_0_17_279
*307 FILLER_0_17_28
*308 FILLER_0_17_282
*309 FILLER_0_17_314
*310 FILLER_0_17_322
*311 FILLER_0_17_60
*312 FILLER_0_17_68
*313 FILLER_0_17_72
*314 FILLER_0_18_101
*315 FILLER_0_18_107
*316 FILLER_0_18_123
*317 FILLER_0_18_131
*318 FILLER_0_18_135
*319 FILLER_0_18_147
*320 FILLER_0_18_167
*321 FILLER_0_18_191
*322 FILLER_0_18_232
*323 FILLER_0_18_240
*324 FILLER_0_18_244
*325 FILLER_0_18_247
*326 FILLER_0_18_28
*327 FILLER_0_18_311
*328 FILLER_0_18_317
*329 FILLER_0_18_32
*330 FILLER_0_18_34
*331 FILLER_0_18_37
*332 FILLER_0_19_104
*333 FILLER_0_19_107
*334 FILLER_0_19_115
*335 FILLER_0_19_119
*336 FILLER_0_19_150
*337 FILLER_0_19_152
*338 FILLER_0_19_161
*339 FILLER_0_19_175
*340 FILLER_0_19_193
*341 FILLER_0_19_2
*342 FILLER_0_19_206
*343 FILLER_0_19_220
*344 FILLER_0_19_252
*345 FILLER_0_19_268
*346 FILLER_0_19_276
*347 FILLER_0_19_282
*348 FILLER_0_19_346
*349 FILLER_0_19_348
*350 FILLER_0_19_66
*351 FILLER_0_19_72
*352 FILLER_0_1_136
*353 FILLER_0_1_142
*354 FILLER_0_1_2
*355 FILLER_0_1_206
*356 FILLER_0_1_212
*357 FILLER_0_1_276
*358 FILLER_0_1_282
*359 FILLER_0_1_346
*360 FILLER_0_1_348
*361 FILLER_0_1_66
*362 FILLER_0_1_72
*363 FILLER_0_20_107
*364 FILLER_0_20_148
*365 FILLER_0_20_172
*366 FILLER_0_20_174
*367 FILLER_0_20_2
*368 FILLER_0_20_215
*369 FILLER_0_20_224
*370 FILLER_0_20_234
*371 FILLER_0_20_242
*372 FILLER_0_20_244
*373 FILLER_0_20_247
*374 FILLER_0_20_311
*375 FILLER_0_20_317
*376 FILLER_0_20_321
*377 FILLER_0_20_34
*378 FILLER_0_20_37
*379 FILLER_0_20_69
*380 FILLER_0_20_73
*381 FILLER_0_20_75
*382 FILLER_0_21_111
*383 FILLER_0_21_127
*384 FILLER_0_21_129
*385 FILLER_0_21_136
*386 FILLER_0_21_142
*387 FILLER_0_21_150
*388 FILLER_0_21_154
*389 FILLER_0_21_156
*390 FILLER_0_21_2
*391 FILLER_0_21_209
*392 FILLER_0_21_212
*393 FILLER_0_21_245
*394 FILLER_0_21_249
*395 FILLER_0_21_265
*396 FILLER_0_21_273
*397 FILLER_0_21_277
*398 FILLER_0_21_279
*399 FILLER_0_21_282
*400 FILLER_0_21_314
*401 FILLER_0_21_322
*402 FILLER_0_21_66
*403 FILLER_0_21_72
*404 FILLER_0_21_80
*405 FILLER_0_22_101
*406 FILLER_0_22_113
*407 FILLER_0_22_121
*408 FILLER_0_22_183
*409 FILLER_0_22_187
*410 FILLER_0_22_2
*411 FILLER_0_22_247
*412 FILLER_0_22_260
*413 FILLER_0_22_292
*414 FILLER_0_22_308
*415 FILLER_0_22_312
*416 FILLER_0_22_314
*417 FILLER_0_22_317
*418 FILLER_0_22_321
*419 FILLER_0_22_34
*420 FILLER_0_22_37
*421 FILLER_0_23_115
*422 FILLER_0_23_131
*423 FILLER_0_23_139
*424 FILLER_0_23_142
*425 FILLER_0_23_146
*426 FILLER_0_23_154
*427 FILLER_0_23_170
*428 FILLER_0_23_176
*429 FILLER_0_23_180
*430 FILLER_0_23_190
*431 FILLER_0_23_194
*432 FILLER_0_23_2
*433 FILLER_0_23_208
*434 FILLER_0_23_212
*435 FILLER_0_23_214
*436 FILLER_0_23_221
*437 FILLER_0_23_254
*438 FILLER_0_23_270
*439 FILLER_0_23_278
*440 FILLER_0_23_282
*441 FILLER_0_23_314
*442 FILLER_0_23_322
*443 FILLER_0_23_66
*444 FILLER_0_23_72
*445 FILLER_0_24_112
*446 FILLER_0_24_116
*447 FILLER_0_24_124
*448 FILLER_0_24_128
*449 FILLER_0_24_147
*450 FILLER_0_24_160
*451 FILLER_0_24_168
*452 FILLER_0_24_172
*453 FILLER_0_24_174
*454 FILLER_0_24_177
*455 FILLER_0_24_181
*456 FILLER_0_24_211
*457 FILLER_0_24_215
*458 FILLER_0_24_228
*459 FILLER_0_24_230
*460 FILLER_0_24_236
*461 FILLER_0_24_244
*462 FILLER_0_24_247
*463 FILLER_0_24_28
*464 FILLER_0_24_311
*465 FILLER_0_24_317
*466 FILLER_0_24_32
*467 FILLER_0_24_321
*468 FILLER_0_24_34
*469 FILLER_0_24_37
*470 FILLER_0_24_69
*471 FILLER_0_24_73
*472 FILLER_0_24_75
*473 FILLER_0_25_104
*474 FILLER_0_25_108
*475 FILLER_0_25_110
*476 FILLER_0_25_142
*477 FILLER_0_25_162
*478 FILLER_0_25_178
*479 FILLER_0_25_182
*480 FILLER_0_25_193
*481 FILLER_0_25_209
*482 FILLER_0_25_212
*483 FILLER_0_25_225
*484 FILLER_0_25_257
*485 FILLER_0_25_273
*486 FILLER_0_25_277
*487 FILLER_0_25_279
*488 FILLER_0_25_28
*489 FILLER_0_25_282
*490 FILLER_0_25_346
*491 FILLER_0_25_348
*492 FILLER_0_25_60
*493 FILLER_0_25_68
*494 FILLER_0_25_72
*495 FILLER_0_26_107
*496 FILLER_0_26_111
*497 FILLER_0_26_113
*498 FILLER_0_26_116
*499 FILLER_0_26_124
*500 FILLER_0_26_132
*501 FILLER_0_26_148
*502 FILLER_0_26_158
*503 FILLER_0_26_166
*504 FILLER_0_26_194
*505 FILLER_0_26_2
*506 FILLER_0_26_205
*507 FILLER_0_26_213
*508 FILLER_0_26_215
*509 FILLER_0_26_247
*510 FILLER_0_26_251
*511 FILLER_0_26_317
*512 FILLER_0_26_34
*513 FILLER_0_26_37
*514 FILLER_0_27_123
*515 FILLER_0_27_139
*516 FILLER_0_27_147
*517 FILLER_0_27_156
*518 FILLER_0_27_160
*519 FILLER_0_27_168
*520 FILLER_0_27_198
*521 FILLER_0_27_2
*522 FILLER_0_27_202
*523 FILLER_0_27_212
*524 FILLER_0_27_219
*525 FILLER_0_27_226
*526 FILLER_0_27_241
*527 FILLER_0_27_273
*528 FILLER_0_27_277
*529 FILLER_0_27_279
*530 FILLER_0_27_282
*531 FILLER_0_27_314
*532 FILLER_0_27_322
*533 FILLER_0_27_66
*534 FILLER_0_27_72
*535 FILLER_0_27_80
*536 FILLER_0_27_84
*537 FILLER_0_28_101
*538 FILLER_0_28_111
*539 FILLER_0_28_124
*540 FILLER_0_28_168
*541 FILLER_0_28_172
*542 FILLER_0_28_174
*543 FILLER_0_28_177
*544 FILLER_0_28_181
*545 FILLER_0_28_240
*546 FILLER_0_28_244
*547 FILLER_0_28_247
*548 FILLER_0_28_28
*549 FILLER_0_28_311
*550 FILLER_0_28_317
*551 FILLER_0_28_32
*552 FILLER_0_28_321
*553 FILLER_0_28_34
*554 FILLER_0_28_37
*555 FILLER_0_29_127
*556 FILLER_0_29_131
*557 FILLER_0_29_139
*558 FILLER_0_29_142
*559 FILLER_0_29_150
*560 FILLER_0_29_154
*561 FILLER_0_29_159
*562 FILLER_0_29_167
*563 FILLER_0_29_199
*564 FILLER_0_29_207
*565 FILLER_0_29_209
*566 FILLER_0_29_212
*567 FILLER_0_29_216
*568 FILLER_0_29_28
*569 FILLER_0_29_282
*570 FILLER_0_29_314
*571 FILLER_0_29_322
*572 FILLER_0_29_60
*573 FILLER_0_29_68
*574 FILLER_0_29_72
*575 FILLER_0_29_88
*576 FILLER_0_2_101
*577 FILLER_0_2_107
*578 FILLER_0_2_171
*579 FILLER_0_2_177
*580 FILLER_0_2_2
*581 FILLER_0_2_241
*582 FILLER_0_2_247
*583 FILLER_0_2_311
*584 FILLER_0_2_317
*585 FILLER_0_2_34
*586 FILLER_0_2_37
*587 FILLER_0_30_101
*588 FILLER_0_30_107
*589 FILLER_0_30_111
*590 FILLER_0_30_119
*591 FILLER_0_30_135
*592 FILLER_0_30_139
*593 FILLER_0_30_170
*594 FILLER_0_30_174
*595 FILLER_0_30_177
*596 FILLER_0_30_241
*597 FILLER_0_30_247
*598 FILLER_0_30_28
*599 FILLER_0_30_311
*600 FILLER_0_30_317
*601 FILLER_0_30_32
*602 FILLER_0_30_34
*603 FILLER_0_30_37
*604 FILLER_0_31_136
*605 FILLER_0_31_142
*606 FILLER_0_31_206
*607 FILLER_0_31_212
*608 FILLER_0_31_276
*609 FILLER_0_31_28
*610 FILLER_0_31_282
*611 FILLER_0_31_346
*612 FILLER_0_31_348
*613 FILLER_0_31_60
*614 FILLER_0_31_68
*615 FILLER_0_31_72
*616 FILLER_0_32_101
*617 FILLER_0_32_107
*618 FILLER_0_32_171
*619 FILLER_0_32_177
*620 FILLER_0_32_2
*621 FILLER_0_32_241
*622 FILLER_0_32_247
*623 FILLER_0_32_311
*624 FILLER_0_32_317
*625 FILLER_0_32_34
*626 FILLER_0_32_37
*627 FILLER_0_33_136
*628 FILLER_0_33_142
*629 FILLER_0_33_2
*630 FILLER_0_33_206
*631 FILLER_0_33_212
*632 FILLER_0_33_276
*633 FILLER_0_33_282
*634 FILLER_0_33_346
*635 FILLER_0_33_348
*636 FILLER_0_33_66
*637 FILLER_0_33_72
*638 FILLER_0_34_101
*639 FILLER_0_34_107
*640 FILLER_0_34_171
*641 FILLER_0_34_177
*642 FILLER_0_34_2
*643 FILLER_0_34_241
*644 FILLER_0_34_247
*645 FILLER_0_34_311
*646 FILLER_0_34_317
*647 FILLER_0_34_34
*648 FILLER_0_34_37
*649 FILLER_0_35_136
*650 FILLER_0_35_142
*651 FILLER_0_35_2
*652 FILLER_0_35_206
*653 FILLER_0_35_212
*654 FILLER_0_35_276
*655 FILLER_0_35_282
*656 FILLER_0_35_346
*657 FILLER_0_35_348
*658 FILLER_0_35_66
*659 FILLER_0_35_72
*660 FILLER_0_36_101
*661 FILLER_0_36_107
*662 FILLER_0_36_171
*663 FILLER_0_36_177
*664 FILLER_0_36_2
*665 FILLER_0_36_241
*666 FILLER_0_36_247
*667 FILLER_0_36_311
*668 FILLER_0_36_317
*669 FILLER_0_36_34
*670 FILLER_0_36_37
*671 FILLER_0_37_136
*672 FILLER_0_37_142
*673 FILLER_0_37_2
*674 FILLER_0_37_206
*675 FILLER_0_37_212
*676 FILLER_0_37_276
*677 FILLER_0_37_282
*678 FILLER_0_37_346
*679 FILLER_0_37_348
*680 FILLER_0_37_66
*681 FILLER_0_37_72
*682 FILLER_0_38_101
*683 FILLER_0_38_107
*684 FILLER_0_38_171
*685 FILLER_0_38_177
*686 FILLER_0_38_2
*687 FILLER_0_38_241
*688 FILLER_0_38_247
*689 FILLER_0_38_311
*690 FILLER_0_38_317
*691 FILLER_0_38_34
*692 FILLER_0_38_37
*693 FILLER_0_39_136
*694 FILLER_0_39_142
*695 FILLER_0_39_2
*696 FILLER_0_39_206
*697 FILLER_0_39_212
*698 FILLER_0_39_276
*699 FILLER_0_39_282
*700 FILLER_0_39_346
*701 FILLER_0_39_348
*702 FILLER_0_39_66
*703 FILLER_0_39_72
*704 FILLER_0_3_136
*705 FILLER_0_3_142
*706 FILLER_0_3_2
*707 FILLER_0_3_206
*708 FILLER_0_3_212
*709 FILLER_0_3_276
*710 FILLER_0_3_282
*711 FILLER_0_3_346
*712 FILLER_0_3_348
*713 FILLER_0_3_66
*714 FILLER_0_3_72
*715 FILLER_0_40_101
*716 FILLER_0_40_107
*717 FILLER_0_40_171
*718 FILLER_0_40_177
*719 FILLER_0_40_2
*720 FILLER_0_40_241
*721 FILLER_0_40_247
*722 FILLER_0_40_311
*723 FILLER_0_40_317
*724 FILLER_0_40_34
*725 FILLER_0_40_37
*726 FILLER_0_41_136
*727 FILLER_0_41_142
*728 FILLER_0_41_2
*729 FILLER_0_41_206
*730 FILLER_0_41_212
*731 FILLER_0_41_276
*732 FILLER_0_41_282
*733 FILLER_0_41_346
*734 FILLER_0_41_348
*735 FILLER_0_41_66
*736 FILLER_0_41_72
*737 FILLER_0_42_101
*738 FILLER_0_42_107
*739 FILLER_0_42_139
*740 FILLER_0_42_155
*741 FILLER_0_42_167
*742 FILLER_0_42_177
*743 FILLER_0_42_2
*744 FILLER_0_42_241
*745 FILLER_0_42_247
*746 FILLER_0_42_311
*747 FILLER_0_42_317
*748 FILLER_0_42_34
*749 FILLER_0_42_37
*750 FILLER_0_43_136
*751 FILLER_0_43_142
*752 FILLER_0_43_150
*753 FILLER_0_43_154
*754 FILLER_0_43_156
*755 FILLER_0_43_183
*756 FILLER_0_43_199
*757 FILLER_0_43_2
*758 FILLER_0_43_207
*759 FILLER_0_43_209
*760 FILLER_0_43_238
*761 FILLER_0_43_270
*762 FILLER_0_43_278
*763 FILLER_0_43_282
*764 FILLER_0_43_346
*765 FILLER_0_43_348
*766 FILLER_0_43_66
*767 FILLER_0_43_72
*768 FILLER_0_44_104
*769 FILLER_0_44_138
*770 FILLER_0_44_142
*771 FILLER_0_44_198
*772 FILLER_0_44_2
*773 FILLER_0_44_202
*774 FILLER_0_44_232
*775 FILLER_0_44_236
*776 FILLER_0_44_240
*777 FILLER_0_44_274
*778 FILLER_0_44_308
*779 FILLER_0_44_342
*780 FILLER_0_44_346
*781 FILLER_0_44_348
*782 FILLER_0_44_36
*783 FILLER_0_44_70
*784 FILLER_0_4_101
*785 FILLER_0_4_107
*786 FILLER_0_4_171
*787 FILLER_0_4_177
*788 FILLER_0_4_2
*789 FILLER_0_4_241
*790 FILLER_0_4_247
*791 FILLER_0_4_311
*792 FILLER_0_4_317
*793 FILLER_0_4_34
*794 FILLER_0_4_37
*795 FILLER_0_5_136
*796 FILLER_0_5_142
*797 FILLER_0_5_2
*798 FILLER_0_5_206
*799 FILLER_0_5_212
*800 FILLER_0_5_276
*801 FILLER_0_5_282
*802 FILLER_0_5_346
*803 FILLER_0_5_348
*804 FILLER_0_5_66
*805 FILLER_0_5_72
*806 FILLER_0_6_101
*807 FILLER_0_6_107
*808 FILLER_0_6_171
*809 FILLER_0_6_177
*810 FILLER_0_6_2
*811 FILLER_0_6_241
*812 FILLER_0_6_247
*813 FILLER_0_6_311
*814 FILLER_0_6_317
*815 FILLER_0_6_34
*816 FILLER_0_6_37
*817 FILLER_0_7_136
*818 FILLER_0_7_142
*819 FILLER_0_7_2
*820 FILLER_0_7_206
*821 FILLER_0_7_212
*822 FILLER_0_7_276
*823 FILLER_0_7_282
*824 FILLER_0_7_346
*825 FILLER_0_7_348
*826 FILLER_0_7_66
*827 FILLER_0_7_72
*828 FILLER_0_8_101
*829 FILLER_0_8_107
*830 FILLER_0_8_171
*831 FILLER_0_8_177
*832 FILLER_0_8_2
*833 FILLER_0_8_241
*834 FILLER_0_8_247
*835 FILLER_0_8_311
*836 FILLER_0_8_317
*837 FILLER_0_8_34
*838 FILLER_0_8_37
*839 FILLER_0_9_136
*840 FILLER_0_9_142
*841 FILLER_0_9_2
*842 FILLER_0_9_206
*843 FILLER_0_9_212
*844 FILLER_0_9_276
*845 FILLER_0_9_282
*846 FILLER_0_9_314
*847 FILLER_0_9_330
*848 FILLER_0_9_338
*849 FILLER_0_9_342
*850 FILLER_0_9_344
*851 FILLER_0_9_66
*852 FILLER_0_9_72
*853 PHY_EDGE_ROW_0_Left_45
*854 PHY_EDGE_ROW_0_Right_0
*855 PHY_EDGE_ROW_10_Left_55
*856 PHY_EDGE_ROW_10_Right_10
*857 PHY_EDGE_ROW_11_Left_56
*858 PHY_EDGE_ROW_11_Right_11
*859 PHY_EDGE_ROW_12_Left_57
*860 PHY_EDGE_ROW_12_Right_12
*861 PHY_EDGE_ROW_13_Left_58
*862 PHY_EDGE_ROW_13_Right_13
*863 PHY_EDGE_ROW_14_Left_59
*864 PHY_EDGE_ROW_14_Right_14
*865 PHY_EDGE_ROW_15_Left_60
*866 PHY_EDGE_ROW_15_Right_15
*867 PHY_EDGE_ROW_16_Left_61
*868 PHY_EDGE_ROW_16_Right_16
*869 PHY_EDGE_ROW_17_Left_62
*870 PHY_EDGE_ROW_17_Right_17
*871 PHY_EDGE_ROW_18_Left_63
*872 PHY_EDGE_ROW_18_Right_18
*873 PHY_EDGE_ROW_19_Left_64
*874 PHY_EDGE_ROW_19_Right_19
*875 PHY_EDGE_ROW_1_Left_46
*876 PHY_EDGE_ROW_1_Right_1
*877 PHY_EDGE_ROW_20_Left_65
*878 PHY_EDGE_ROW_20_Right_20
*879 PHY_EDGE_ROW_21_Left_66
*880 PHY_EDGE_ROW_21_Right_21
*881 PHY_EDGE_ROW_22_Left_67
*882 PHY_EDGE_ROW_22_Right_22
*883 PHY_EDGE_ROW_23_Left_68
*884 PHY_EDGE_ROW_23_Right_23
*885 PHY_EDGE_ROW_24_Left_69
*886 PHY_EDGE_ROW_24_Right_24
*887 PHY_EDGE_ROW_25_Left_70
*888 PHY_EDGE_ROW_25_Right_25
*889 PHY_EDGE_ROW_26_Left_71
*890 PHY_EDGE_ROW_26_Right_26
*891 PHY_EDGE_ROW_27_Left_72
*892 PHY_EDGE_ROW_27_Right_27
*893 PHY_EDGE_ROW_28_Left_73
*894 PHY_EDGE_ROW_28_Right_28
*895 PHY_EDGE_ROW_29_Left_74
*896 PHY_EDGE_ROW_29_Right_29
*897 PHY_EDGE_ROW_2_Left_47
*898 PHY_EDGE_ROW_2_Right_2
*899 PHY_EDGE_ROW_30_Left_75
*900 PHY_EDGE_ROW_30_Right_30
*901 PHY_EDGE_ROW_31_Left_76
*902 PHY_EDGE_ROW_31_Right_31
*903 PHY_EDGE_ROW_32_Left_77
*904 PHY_EDGE_ROW_32_Right_32
*905 PHY_EDGE_ROW_33_Left_78
*906 PHY_EDGE_ROW_33_Right_33
*907 PHY_EDGE_ROW_34_Left_79
*908 PHY_EDGE_ROW_34_Right_34
*909 PHY_EDGE_ROW_35_Left_80
*910 PHY_EDGE_ROW_35_Right_35
*911 PHY_EDGE_ROW_36_Left_81
*912 PHY_EDGE_ROW_36_Right_36
*913 PHY_EDGE_ROW_37_Left_82
*914 PHY_EDGE_ROW_37_Right_37
*915 PHY_EDGE_ROW_38_Left_83
*916 PHY_EDGE_ROW_38_Right_38
*917 PHY_EDGE_ROW_39_Left_84
*918 PHY_EDGE_ROW_39_Right_39
*919 PHY_EDGE_ROW_3_Left_48
*920 PHY_EDGE_ROW_3_Right_3
*921 PHY_EDGE_ROW_40_Left_85
*922 PHY_EDGE_ROW_40_Right_40
*923 PHY_EDGE_ROW_41_Left_86
*924 PHY_EDGE_ROW_41_Right_41
*925 PHY_EDGE_ROW_42_Left_87
*926 PHY_EDGE_ROW_42_Right_42
*927 PHY_EDGE_ROW_43_Left_88
*928 PHY_EDGE_ROW_43_Right_43
*929 PHY_EDGE_ROW_44_Left_89
*930 PHY_EDGE_ROW_44_Right_44
*931 PHY_EDGE_ROW_4_Left_49
*932 PHY_EDGE_ROW_4_Right_4
*933 PHY_EDGE_ROW_5_Left_50
*934 PHY_EDGE_ROW_5_Right_5
*935 PHY_EDGE_ROW_6_Left_51
*936 PHY_EDGE_ROW_6_Right_6
*937 PHY_EDGE_ROW_7_Left_52
*938 PHY_EDGE_ROW_7_Right_7
*939 PHY_EDGE_ROW_8_Left_53
*940 PHY_EDGE_ROW_8_Right_8
*941 PHY_EDGE_ROW_9_Left_54
*942 PHY_EDGE_ROW_9_Right_9
*943 TAP_TAPCELL_ROW_0_90
*944 TAP_TAPCELL_ROW_0_91
*945 TAP_TAPCELL_ROW_0_92
*946 TAP_TAPCELL_ROW_0_93
*947 TAP_TAPCELL_ROW_0_94
*948 TAP_TAPCELL_ROW_0_95
*949 TAP_TAPCELL_ROW_0_96
*950 TAP_TAPCELL_ROW_0_97
*951 TAP_TAPCELL_ROW_0_98
*952 TAP_TAPCELL_ROW_0_99
*953 TAP_TAPCELL_ROW_10_140
*954 TAP_TAPCELL_ROW_10_141
*955 TAP_TAPCELL_ROW_10_142
*956 TAP_TAPCELL_ROW_10_143
*957 TAP_TAPCELL_ROW_10_144
*958 TAP_TAPCELL_ROW_11_145
*959 TAP_TAPCELL_ROW_11_146
*960 TAP_TAPCELL_ROW_11_147
*961 TAP_TAPCELL_ROW_11_148
*962 TAP_TAPCELL_ROW_12_149
*963 TAP_TAPCELL_ROW_12_150
*964 TAP_TAPCELL_ROW_12_151
*965 TAP_TAPCELL_ROW_12_152
*966 TAP_TAPCELL_ROW_12_153
*967 TAP_TAPCELL_ROW_13_154
*968 TAP_TAPCELL_ROW_13_155
*969 TAP_TAPCELL_ROW_13_156
*970 TAP_TAPCELL_ROW_13_157
*971 TAP_TAPCELL_ROW_14_158
*972 TAP_TAPCELL_ROW_14_159
*973 TAP_TAPCELL_ROW_14_160
*974 TAP_TAPCELL_ROW_14_161
*975 TAP_TAPCELL_ROW_14_162
*976 TAP_TAPCELL_ROW_15_163
*977 TAP_TAPCELL_ROW_15_164
*978 TAP_TAPCELL_ROW_15_165
*979 TAP_TAPCELL_ROW_15_166
*980 TAP_TAPCELL_ROW_16_167
*981 TAP_TAPCELL_ROW_16_168
*982 TAP_TAPCELL_ROW_16_169
*983 TAP_TAPCELL_ROW_16_170
*984 TAP_TAPCELL_ROW_16_171
*985 TAP_TAPCELL_ROW_17_172
*986 TAP_TAPCELL_ROW_17_173
*987 TAP_TAPCELL_ROW_17_174
*988 TAP_TAPCELL_ROW_17_175
*989 TAP_TAPCELL_ROW_18_176
*990 TAP_TAPCELL_ROW_18_177
*991 TAP_TAPCELL_ROW_18_178
*992 TAP_TAPCELL_ROW_18_179
*993 TAP_TAPCELL_ROW_18_180
*994 TAP_TAPCELL_ROW_19_181
*995 TAP_TAPCELL_ROW_19_182
*996 TAP_TAPCELL_ROW_19_183
*997 TAP_TAPCELL_ROW_19_184
*998 TAP_TAPCELL_ROW_1_100
*999 TAP_TAPCELL_ROW_1_101
*1000 TAP_TAPCELL_ROW_1_102
*1001 TAP_TAPCELL_ROW_1_103
*1002 TAP_TAPCELL_ROW_20_185
*1003 TAP_TAPCELL_ROW_20_186
*1004 TAP_TAPCELL_ROW_20_187
*1005 TAP_TAPCELL_ROW_20_188
*1006 TAP_TAPCELL_ROW_20_189
*1007 TAP_TAPCELL_ROW_21_190
*1008 TAP_TAPCELL_ROW_21_191
*1009 TAP_TAPCELL_ROW_21_192
*1010 TAP_TAPCELL_ROW_21_193
*1011 TAP_TAPCELL_ROW_22_194
*1012 TAP_TAPCELL_ROW_22_195
*1013 TAP_TAPCELL_ROW_22_196
*1014 TAP_TAPCELL_ROW_22_197
*1015 TAP_TAPCELL_ROW_22_198
*1016 TAP_TAPCELL_ROW_23_199
*1017 TAP_TAPCELL_ROW_23_200
*1018 TAP_TAPCELL_ROW_23_201
*1019 TAP_TAPCELL_ROW_23_202
*1020 TAP_TAPCELL_ROW_24_203
*1021 TAP_TAPCELL_ROW_24_204
*1022 TAP_TAPCELL_ROW_24_205
*1023 TAP_TAPCELL_ROW_24_206
*1024 TAP_TAPCELL_ROW_24_207
*1025 TAP_TAPCELL_ROW_25_208
*1026 TAP_TAPCELL_ROW_25_209
*1027 TAP_TAPCELL_ROW_25_210
*1028 TAP_TAPCELL_ROW_25_211
*1029 TAP_TAPCELL_ROW_26_212
*1030 TAP_TAPCELL_ROW_26_213
*1031 TAP_TAPCELL_ROW_26_214
*1032 TAP_TAPCELL_ROW_26_215
*1033 TAP_TAPCELL_ROW_26_216
*1034 TAP_TAPCELL_ROW_27_217
*1035 TAP_TAPCELL_ROW_27_218
*1036 TAP_TAPCELL_ROW_27_219
*1037 TAP_TAPCELL_ROW_27_220
*1038 TAP_TAPCELL_ROW_28_221
*1039 TAP_TAPCELL_ROW_28_222
*1040 TAP_TAPCELL_ROW_28_223
*1041 TAP_TAPCELL_ROW_28_224
*1042 TAP_TAPCELL_ROW_28_225
*1043 TAP_TAPCELL_ROW_29_226
*1044 TAP_TAPCELL_ROW_29_227
*1045 TAP_TAPCELL_ROW_29_228
*1046 TAP_TAPCELL_ROW_29_229
*1047 TAP_TAPCELL_ROW_2_104
*1048 TAP_TAPCELL_ROW_2_105
*1049 TAP_TAPCELL_ROW_2_106
*1050 TAP_TAPCELL_ROW_2_107
*1051 TAP_TAPCELL_ROW_2_108
*1052 TAP_TAPCELL_ROW_30_230
*1053 TAP_TAPCELL_ROW_30_231
*1054 TAP_TAPCELL_ROW_30_232
*1055 TAP_TAPCELL_ROW_30_233
*1056 TAP_TAPCELL_ROW_30_234
*1057 TAP_TAPCELL_ROW_31_235
*1058 TAP_TAPCELL_ROW_31_236
*1059 TAP_TAPCELL_ROW_31_237
*1060 TAP_TAPCELL_ROW_31_238
*1061 TAP_TAPCELL_ROW_32_239
*1062 TAP_TAPCELL_ROW_32_240
*1063 TAP_TAPCELL_ROW_32_241
*1064 TAP_TAPCELL_ROW_32_242
*1065 TAP_TAPCELL_ROW_32_243
*1066 TAP_TAPCELL_ROW_33_244
*1067 TAP_TAPCELL_ROW_33_245
*1068 TAP_TAPCELL_ROW_33_246
*1069 TAP_TAPCELL_ROW_33_247
*1070 TAP_TAPCELL_ROW_34_248
*1071 TAP_TAPCELL_ROW_34_249
*1072 TAP_TAPCELL_ROW_34_250
*1073 TAP_TAPCELL_ROW_34_251
*1074 TAP_TAPCELL_ROW_34_252
*1075 TAP_TAPCELL_ROW_35_253
*1076 TAP_TAPCELL_ROW_35_254
*1077 TAP_TAPCELL_ROW_35_255
*1078 TAP_TAPCELL_ROW_35_256
*1079 TAP_TAPCELL_ROW_36_257
*1080 TAP_TAPCELL_ROW_36_258
*1081 TAP_TAPCELL_ROW_36_259
*1082 TAP_TAPCELL_ROW_36_260
*1083 TAP_TAPCELL_ROW_36_261
*1084 TAP_TAPCELL_ROW_37_262
*1085 TAP_TAPCELL_ROW_37_263
*1086 TAP_TAPCELL_ROW_37_264
*1087 TAP_TAPCELL_ROW_37_265
*1088 TAP_TAPCELL_ROW_38_266
*1089 TAP_TAPCELL_ROW_38_267
*1090 TAP_TAPCELL_ROW_38_268
*1091 TAP_TAPCELL_ROW_38_269
*1092 TAP_TAPCELL_ROW_38_270
*1093 TAP_TAPCELL_ROW_39_271
*1094 TAP_TAPCELL_ROW_39_272
*1095 TAP_TAPCELL_ROW_39_273
*1096 TAP_TAPCELL_ROW_39_274
*1097 TAP_TAPCELL_ROW_3_109
*1098 TAP_TAPCELL_ROW_3_110
*1099 TAP_TAPCELL_ROW_3_111
*1100 TAP_TAPCELL_ROW_3_112
*1101 TAP_TAPCELL_ROW_40_275
*1102 TAP_TAPCELL_ROW_40_276
*1103 TAP_TAPCELL_ROW_40_277
*1104 TAP_TAPCELL_ROW_40_278
*1105 TAP_TAPCELL_ROW_40_279
*1106 TAP_TAPCELL_ROW_41_280
*1107 TAP_TAPCELL_ROW_41_281
*1108 TAP_TAPCELL_ROW_41_282
*1109 TAP_TAPCELL_ROW_41_283
*1110 TAP_TAPCELL_ROW_42_284
*1111 TAP_TAPCELL_ROW_42_285
*1112 TAP_TAPCELL_ROW_42_286
*1113 TAP_TAPCELL_ROW_42_287
*1114 TAP_TAPCELL_ROW_42_288
*1115 TAP_TAPCELL_ROW_43_289
*1116 TAP_TAPCELL_ROW_43_290
*1117 TAP_TAPCELL_ROW_43_291
*1118 TAP_TAPCELL_ROW_43_292
*1119 TAP_TAPCELL_ROW_44_293
*1120 TAP_TAPCELL_ROW_44_294
*1121 TAP_TAPCELL_ROW_44_295
*1122 TAP_TAPCELL_ROW_44_296
*1123 TAP_TAPCELL_ROW_44_297
*1124 TAP_TAPCELL_ROW_44_298
*1125 TAP_TAPCELL_ROW_44_299
*1126 TAP_TAPCELL_ROW_44_300
*1127 TAP_TAPCELL_ROW_44_301
*1128 TAP_TAPCELL_ROW_44_302
*1129 TAP_TAPCELL_ROW_4_113
*1130 TAP_TAPCELL_ROW_4_114
*1131 TAP_TAPCELL_ROW_4_115
*1132 TAP_TAPCELL_ROW_4_116
*1133 TAP_TAPCELL_ROW_4_117
*1134 TAP_TAPCELL_ROW_5_118
*1135 TAP_TAPCELL_ROW_5_119
*1136 TAP_TAPCELL_ROW_5_120
*1137 TAP_TAPCELL_ROW_5_121
*1138 TAP_TAPCELL_ROW_6_122
*1139 TAP_TAPCELL_ROW_6_123
*1140 TAP_TAPCELL_ROW_6_124
*1141 TAP_TAPCELL_ROW_6_125
*1142 TAP_TAPCELL_ROW_6_126
*1143 TAP_TAPCELL_ROW_7_127
*1144 TAP_TAPCELL_ROW_7_128
*1145 TAP_TAPCELL_ROW_7_129
*1146 TAP_TAPCELL_ROW_7_130
*1147 TAP_TAPCELL_ROW_8_131
*1148 TAP_TAPCELL_ROW_8_132
*1149 TAP_TAPCELL_ROW_8_133
*1150 TAP_TAPCELL_ROW_8_134
*1151 TAP_TAPCELL_ROW_8_135
*1152 TAP_TAPCELL_ROW_9_136
*1153 TAP_TAPCELL_ROW_9_137
*1154 TAP_TAPCELL_ROW_9_138
*1155 TAP_TAPCELL_ROW_9_139
*1156 _087_
*1157 _088_
*1158 _089_
*1159 _090_
*1160 _091_
*1161 _092_
*1162 _093_
*1163 _094_
*1164 _095_
*1165 _096_
*1166 _097_
*1167 _098_
*1168 _099_
*1169 _100_
*1170 _101_
*1171 _102_
*1172 _103_
*1173 _104_
*1174 _105_
*1175 _106_
*1176 _107_
*1177 _108_
*1178 _109_
*1179 _110_
*1180 _111_
*1181 _112_
*1182 _113_
*1183 _114_
*1184 _115_
*1185 _116_
*1186 _117_
*1187 _118_
*1188 _119_
*1189 _120_
*1190 _121_
*1191 _122_
*1192 _123_
*1193 _124_
*1194 _125_
*1195 _126_
*1196 _127_
*1197 _128_
*1198 _129_
*1199 _130_
*1200 _131_
*1201 _132_
*1202 _133_
*1203 _134_
*1204 _135_
*1205 _136_
*1206 _137_
*1207 _138_
*1208 _139_
*1209 _140_
*1210 _141_
*1211 _142_
*1212 _143_
*1213 _144_
*1214 _145_
*1215 _146_
*1216 _147_
*1217 _148_
*1218 _149_
*1219 _150_
*1220 _151_
*1221 _152_
*1222 _153_
*1223 _154_
*1224 _155_
*1225 _156_
*1226 _157_
*1227 _158_
*1228 _159_
*1229 _160_
*1230 _161_
*1231 _162_
*1232 _163_
*1233 _164_
*1234 _165_
*1235 _166_
*1236 _167_
*1237 _168_
*1238 _169_
*1239 _170_
*1240 _171_
*1241 _172_
*1242 _173_
*1243 _174_
*1244 _175_
*1245 _176_
*1246 _177_
*1247 _178_
*1248 _179_
*1249 _180_
*1250 _181_
*1251 _182_
*1252 _183_
*1253 _184_
*1254 _185_
*1255 _186_
*1256 _187_
*1257 _188_
*1258 _189_
*1259 _190_
*1260 _191_
*1261 _192_
*1262 _193_
*1263 _194_
*1264 _195_
*1265 _198_
*1266 _199_
*1267 _200_
*1268 _201_
*1269 _202_
*1270 _203_
*1271 clkbuf_0_clk
*1272 clkbuf_1_0__f_clk
*1273 clkbuf_1_1__f_clk
*1274 ita41_25
*1275 ita41_26
*1276 output1
*1277 output10
*1278 output11
*1279 output12
*1280 output13
*1281 output14
*1282 output15
*1283 output16
*1284 output17
*1285 output18
*1286 output19
*1287 output2
*1288 output20
*1289 output21
*1290 output22
*1291 output23
*1292 output24
*1293 output3
*1294 output4
*1295 output5
*1296 output6
*1297 output7
*1298 output8
*1299 output9

*PORTS
clk I
segm[0] O
segm[10] O
segm[11] O
segm[12] O
segm[13] O
segm[1] O
segm[2] O
segm[3] O
segm[4] O
segm[5] O
segm[6] O
segm[7] O
segm[8] O
segm[9] O
sel[0] O
sel[10] O
sel[11] O
sel[1] O
sel[2] O
sel[3] O
sel[4] O
sel[5] O
sel[6] O
sel[7] O
sel[8] O
sel[9] O

*D_NET *1 0.0136788
*CONN
*P clk I
*I *1271:I I *D gf180mcu_fd_sc_mcu7t5v0__clkbuf_16
*I *170:I I *D gf180mcu_fd_sc_mcu7t5v0__antenna
*CAP
1 clk 0.00397433
2 *1271:I 8.16023e-05
3 *170:I 0
4 *1:13 0.00405593
5 *1271:I *1206:C 1.39839e-05
6 *1271:I *1218:A1 3.45237e-05
7 *1271:I *58:38 0.000200669
8 *1271:I *97:25 3.12451e-05
9 *1:13 sel[0] 6.53047e-05
10 *1:13 *1170:I 0.00108088
11 *1:13 *1198:I 0.000221294
12 *1:13 *1218:A1 0.000490795
13 *1:13 *1218:A3 7.13936e-05
14 *1:13 *1244:CLK 0.000206807
15 *1:13 *1245:D 0.000291493
16 *1:13 *58:10 0.000646167
17 *1:13 *58:38 0.00101828
18 *1:13 *118:49 0.000803568
19 *1:13 *121:18 0.000390584
*RES
1 clk *1:13 45.225 
2 *1:13 *170:I 9 
3 *1:13 *1271:I 9.9 
*END

*D_NET *2 0.000787604
*CONN
*P segm[0] O
*I *1274:ZN O *D gf180mcu_fd_sc_mcu7t5v0__tiel
*CAP
1 segm[0] 0.000393802
2 *1274:ZN 0.000393802
*RES
1 *1274:ZN segm[0] 11.655 
*END

*D_NET *3 0.000688683
*CONN
*P segm[10] O
*I *1276:Z O *D gf180mcu_fd_sc_mcu7t5v0__buf_8
*CAP
1 segm[10] 0.000314868
2 *1276:Z 0.000314868
3 segm[10] segm[5] 5.89484e-05
*RES
1 *1276:Z segm[10] 11.295 
*END

*D_NET *4 0.000593431
*CONN
*P segm[11] O
*I *1287:Z O *D gf180mcu_fd_sc_mcu7t5v0__buf_8
*CAP
1 segm[11] 0.000296716
2 *1287:Z 0.000296716
*RES
1 *1287:Z segm[11] 11.475 
*END

*D_NET *5 0.000599059
*CONN
*P segm[12] O
*I *1293:Z O *D gf180mcu_fd_sc_mcu7t5v0__buf_8
*CAP
1 segm[12] 0.000264789
2 *1293:Z 0.000264789
3 segm[12] sel[9] 6.94814e-05
*RES
1 *1293:Z segm[12] 11.475 
*END

*D_NET *6 0.00247499
*CONN
*P segm[13] O
*I *1294:Z O *D gf180mcu_fd_sc_mcu7t5v0__buf_8
*CAP
1 segm[13] 0.0012375
2 *1294:Z 0.0012375
3 segm[13] sel[6] 0
*RES
1 *1294:Z segm[13] 22.815 
*END

*D_NET *7 0.000997056
*CONN
*P segm[1] O
*I *1295:Z O *D gf180mcu_fd_sc_mcu7t5v0__buf_8
*CAP
1 segm[1] 0.000379025
2 *1295:Z 0.000379025
3 segm[1] sel[8] 0.000239006
*RES
1 *1295:Z segm[1] 12.195 
*END

*D_NET *8 0.000602179
*CONN
*P segm[2] O
*I *1296:Z O *D gf180mcu_fd_sc_mcu7t5v0__buf_8
*CAP
1 segm[2] 0.000233037
2 *1296:Z 0.000233037
3 segm[2] sel[10] 6.66239e-05
4 segm[2] sel[4] 6.94814e-05
*RES
1 *1296:Z segm[2] 11.295 
*END

*D_NET *9 0.00306167
*CONN
*P segm[3] O
*I *1275:ZN O *D gf180mcu_fd_sc_mcu7t5v0__tiel
*CAP
1 segm[3] 0.000927391
2 *1275:ZN 0.000927391
3 segm[3] segm[8] 0.000127923
4 segm[3] segm[9] 0.000125349
5 segm[3] *1277:I 0.000367051
6 segm[3] *1278:I 0
7 segm[3] *1279:I 0.000586561
*RES
1 *1275:ZN segm[3] 13.095 
*END

*D_NET *10 0.000818632
*CONN
*P segm[4] O
*I *1297:Z O *D gf180mcu_fd_sc_mcu7t5v0__buf_8
*CAP
1 segm[4] 0.000326191
2 *1297:Z 0.000326191
3 segm[4] sel[0] 9.96302e-05
4 segm[4] sel[8] 6.66205e-05
*RES
1 *1297:Z segm[4] 11.835 
*END

*D_NET *11 0.00073723
*CONN
*P segm[5] O
*I *1298:Z O *D gf180mcu_fd_sc_mcu7t5v0__buf_8
*CAP
1 segm[5] 0.0003044