*SPEF "ieee 1481-1999"
*DESIGN "ita46"
*DATE "11:11:11 Fri 11 11, 1111"
*VENDOR "OpenRCX"
*PROGRAM "Parallel Extraction"
*VERSION "1.0"
*DESIGN_FLOW "NAME_SCOPE LOCAL" "PIN_CAP NONE"
*DIVIDER /
*DELIMITER :
*BUS_DELIMITER []
*T_UNIT 1 NS
*C_UNIT 1 PF
*R_UNIT 1 OHM
*L_UNIT 1 HENRY

*NAME_MAP
*1 clk
*2 segm[0]
*3 segm[10]
*4 segm[11]
*5 segm[12]
*6 segm[13]
*7 net25
*8 segm[2]
*9 segm[3]
*10 net26
*11 segm[5]
*12 segm[6]
*13 segm[7]
*14 segm[8]
*15 segm[9]
*16 sel[0]
*17 sel[10]
*18 sel[11]
*19 sel[1]
*20 sel[2]
*21 sel[3]
*22 sel[4]
*23 sel[5]
*24 sel[6]
*25 sel[7]
*26 sel[8]
*27 sel[9]
*30 _000_
*31 _001_
*32 _002_
*33 _003_
*34 _004_
*35 _005_
*36 _006_
*37 _007_
*38 _008_
*39 _009_
*40 _010_
*41 _011_
*42 _012_
*43 _013_
*44 _014_
*45 _015_
*46 _016_
*47 _017_
*48 _018_
*49 _019_
*50 _020_
*51 _021_
*52 _022_
*53 _023_
*54 _024_
*55 _025_
*56 _026_
*57 _027_
*58 _028_
*59 _029_
*60 _030_
*61 _031_
*62 _032_
*63 _033_
*64 _034_
*65 _035_
*66 _036_
*67 _037_
*68 _038_
*69 _039_
*70 _040_
*71 _041_
*72 _042_
*73 _043_
*74 _044_
*75 _045_
*76 _046_
*77 _047_
*78 _048_
*79 _049_
*80 _050_
*81 _051_
*82 _052_
*83 _053_
*84 _054_
*85 _055_
*86 _056_
*87 _057_
*88 _058_
*89 _059_
*90 _060_
*91 _061_
*92 _062_
*93 _063_
*94 _064_
*95 _065_
*96 _066_
*97 _067_
*98 _068_
*99 _069_
*100 _070_
*101 _071_
*102 clknet_0_clk
*103 clknet_1_0__leaf_clk
*104 clknet_1_1__leaf_clk
*105 dut46\.count\[0\]
*106 dut46\.count\[1\]
*107 dut46\.count\[2\]
*108 dut46\.count\[3\]
*109 net1
*110 net10
*111 net11
*112 net12
*113 net13
*114 net14
*115 net15
*116 net16
*117 net17
*118 net18
*119 net19
*120 net2
*121 net20
*122 net21
*123 net22
*124 net23
*125 net24
*126 net3
*127 net4
*128 net5
*129 net6
*130 net7
*131 net8
*132 net9
*133 ANTENNA_clkbuf_0_clk_I
*134 FILLER_0_0_104
*135 FILLER_0_0_138
*136 FILLER_0_0_165
*137 FILLER_0_0_169
*138 FILLER_0_0_172
*139 FILLER_0_0_2
*140 FILLER_0_0_206
*141 FILLER_0_0_240
*142 FILLER_0_0_274
*143 FILLER_0_0_308
*144 FILLER_0_0_342
*145 FILLER_0_0_346
*146 FILLER_0_0_348
*147 FILLER_0_0_36
*148 FILLER_0_0_70
*149 FILLER_0_10_101
*150 FILLER_0_10_107
*151 FILLER_0_10_171
*152 FILLER_0_10_177
*153 FILLER_0_10_2
*154 FILLER_0_10_241
*155 FILLER_0_10_247
*156 FILLER_0_10_311
*157 FILLER_0_10_317
*158 FILLER_0_10_34
*159 FILLER_0_10_37
*160 FILLER_0_11_136
*161 FILLER_0_11_142
*162 FILLER_0_11_2
*163 FILLER_0_11_206
*164 FILLER_0_11_212
*165 FILLER_0_11_276
*166 FILLER_0_11_282
*167 FILLER_0_11_346
*168 FILLER_0_11_348
*169 FILLER_0_11_66
*170 FILLER_0_11_72
*171 FILLER_0_12_101
*172 FILLER_0_12_107
*173 FILLER_0_12_171
*174 FILLER_0_12_177
*175 FILLER_0_12_2
*176 FILLER_0_12_241
*177 FILLER_0_12_247
*178 FILLER_0_12_311
*179 FILLER_0_12_317
*180 FILLER_0_12_34
*181 FILLER_0_12_37
*182 FILLER_0_13_136
*183 FILLER_0_13_142
*184 FILLER_0_13_2
*185 FILLER_0_13_206
*186 FILLER_0_13_212
*187 FILLER_0_13_276
*188 FILLER_0_13_282
*189 FILLER_0_13_346
*190 FILLER_0_13_348
*191 FILLER_0_13_66
*192 FILLER_0_13_72
*193 FILLER_0_14_101
*194 FILLER_0_14_107
*195 FILLER_0_14_171
*196 FILLER_0_14_177
*197 FILLER_0_14_2
*198 FILLER_0_14_241
*199 FILLER_0_14_247
*200 FILLER_0_14_311
*201 FILLER_0_14_317
*202 FILLER_0_14_34
*203 FILLER_0_14_37
*204 FILLER_0_15_104
*205 FILLER_0_15_108
*206 FILLER_0_15_138
*207 FILLER_0_15_142
*208 FILLER_0_15_152
*209 FILLER_0_15_189
*210 FILLER_0_15_2
*211 FILLER_0_15_205
*212 FILLER_0_15_209
*213 FILLER_0_15_212
*214 FILLER_0_15_276
*215 FILLER_0_15_282
*216 FILLER_0_15_346
*217 FILLER_0_15_348
*218 FILLER_0_15_66
*219 FILLER_0_15_72
*220 FILLER_0_16_101
*221 FILLER_0_16_107
*222 FILLER_0_16_123
*223 FILLER_0_16_131
*224 FILLER_0_16_162
*225 FILLER_0_16_170
*226 FILLER_0_16_174
*227 FILLER_0_16_177
*228 FILLER_0_16_2
*229 FILLER_0_16_241
*230 FILLER_0_16_247
*231 FILLER_0_16_311
*232 FILLER_0_16_317
*233 FILLER_0_16_34
*234 FILLER_0_16_37
*235 FILLER_0_17_117
*236 FILLER_0_17_124
*237 FILLER_0_17_128
*238 FILLER_0_17_142
*239 FILLER_0_17_174
*240 FILLER_0_17_206
*241 FILLER_0_17_241
*242 FILLER_0_17_273
*243 FILLER_0_17_277
*244 FILLER_0_17_279
*245 FILLER_0_17_28
*246 FILLER_0_17_282
*247 FILLER_0_17_314
*248 FILLER_0_17_322
*249 FILLER_0_17_60
*250 FILLER_0_17_68
*251 FILLER_0_17_72
*252 FILLER_0_18_101
*253 FILLER_0_18_107
*254 FILLER_0_18_109
*255 FILLER_0_18_124
*256 FILLER_0_18_140
*257 FILLER_0_18_148
*258 FILLER_0_18_152
*259 FILLER_0_18_154
*260 FILLER_0_18_161
*261 FILLER_0_18_165
*262 FILLER_0_18_171
*263 FILLER_0_18_177
*264 FILLER_0_18_236
*265 FILLER_0_18_244
*266 FILLER_0_18_247
*267 FILLER_0_18_28
*268 FILLER_0_18_311
*269 FILLER_0_18_317
*270 FILLER_0_18_32
*271 FILLER_0_18_321
*272 FILLER_0_18_34
*273 FILLER_0_18_37
*274 FILLER_0_19_121
*275 FILLER_0_19_137
*276 FILLER_0_19_139
*277 FILLER_0_19_142
*278 FILLER_0_19_150
*279 FILLER_0_19_154
*280 FILLER_0_19_164
*281 FILLER_0_19_170
*282 FILLER_0_19_178
*283 FILLER_0_19_182
*284 FILLER_0_19_184
*285 FILLER_0_19_2
*286 FILLER_0_19_206
*287 FILLER_0_19_212
*288 FILLER_0_19_239
*289 FILLER_0_19_271
*290 FILLER_0_19_279
*291 FILLER_0_19_282
*292 FILLER_0_19_314
*293 FILLER_0_19_322
*294 FILLER_0_19_66
*295 FILLER_0_19_72
*296 FILLER_0_19_80
*297 FILLER_0_19_84
*298 FILLER_0_19_86
*299 FILLER_0_1_136
*300 FILLER_0_1_142
*301 FILLER_0_1_2
*302 FILLER_0_1_206
*303 FILLER_0_1_212
*304 FILLER_0_1_276
*305 FILLER_0_1_282
*306 FILLER_0_1_346
*307 FILLER_0_1_348
*308 FILLER_0_1_66
*309 FILLER_0_1_72
*310 FILLER_0_20_101
*311 FILLER_0_20_113
*312 FILLER_0_20_129
*313 FILLER_0_20_133
*314 FILLER_0_20_173
*315 FILLER_0_20_177
*316 FILLER_0_20_193
*317 FILLER_0_20_2
*318 FILLER_0_20_201
*319 FILLER_0_20_211
*320 FILLER_0_20_227
*321 FILLER_0_20_236
*322 FILLER_0_20_244
*323 FILLER_0_20_247
*324 FILLER_0_20_311
*325 FILLER_0_20_317
*326 FILLER_0_20_321
*327 FILLER_0_20_34
*328 FILLER_0_20_37
*329 FILLER_0_21_104
*330 FILLER_0_21_112
*331 FILLER_0_21_123
*332 FILLER_0_21_131
*333 FILLER_0_21_135
*334 FILLER_0_21_182
*335 FILLER_0_21_198
*336 FILLER_0_21_205
*337 FILLER_0_21_209
*338 FILLER_0_21_212
*339 FILLER_0_21_250
*340 FILLER_0_21_266
*341 FILLER_0_21_274
*342 FILLER_0_21_278
*343 FILLER_0_21_28
*344 FILLER_0_21_282
*345 FILLER_0_21_314
*346 FILLER_0_21_322
*347 FILLER_0_21_60
*348 FILLER_0_21_68
*349 FILLER_0_21_72
*350 FILLER_0_22_113
*351 FILLER_0_22_259
*352 FILLER_0_22_28
*353 FILLER_0_22_291
*354 FILLER_0_22_307
*355 FILLER_0_22_317
*356 FILLER_0_22_32
*357 FILLER_0_22_321
*358 FILLER_0_22_34
*359 FILLER_0_22_37
*360 FILLER_0_22_69
*361 FILLER_0_22_73
*362 FILLER_0_22_75
*363 FILLER_0_23_122
*364 FILLER_0_23_138
*365 FILLER_0_23_142
*366 FILLER_0_23_157
*367 FILLER_0_23_159
*368 FILLER_0_23_261
*369 FILLER_0_23_277
*370 FILLER_0_23_279
*371 FILLER_0_23_28
*372 FILLER_0_23_282
*373 FILLER_0_23_314
*374 FILLER_0_23_322
*375 FILLER_0_23_60
*376 FILLER_0_23_68
*377 FILLER_0_23_72
*378 FILLER_0_23_88
*379 FILLER_0_23_92
*380 FILLER_0_24_101
*381 FILLER_0_24_107
*382 FILLER_0_24_111
*383 FILLER_0_24_129
*384 FILLER_0_24_137
*385 FILLER_0_24_141
*386 FILLER_0_24_143
*387 FILLER_0_24_159
*388 FILLER_0_24_161
*389 FILLER_0_24_177
*390 FILLER_0_24_210
*391 FILLER_0_24_218
*392 FILLER_0_24_220
*393 FILLER_0_24_229
*394 FILLER_0_24_247
*395 FILLER_0_24_28
*396 FILLER_0_24_311
*397 FILLER_0_24_317
*398 FILLER_0_24_32
*399 FILLER_0_24_321
*400 FILLER_0_24_34
*401 FILLER_0_24_37
*402 FILLER_0_25_104
*403 FILLER_0_25_120
*404 FILLER_0_25_128
*405 FILLER_0_25_130
*406 FILLER_0_25_137
*407 FILLER_0_25_139
*408 FILLER_0_25_142
*409 FILLER_0_25_146
*410 FILLER_0_25_148
*411 FILLER_0_25_182
*412 FILLER_0_25_2
*413 FILLER_0_25_203
*414 FILLER_0_25_207
*415 FILLER_0_25_209
*416 FILLER_0_25_212
*417 FILLER_0_25_276
*418 FILLER_0_25_282
*419 FILLER_0_25_314
*420 FILLER_0_25_322
*421 FILLER_0_25_66
*422 FILLER_0_25_72
*423 FILLER_0_26_101
*424 FILLER_0_26_107
*425 FILLER_0_26_115
*426 FILLER_0_26_119
*427 FILLER_0_26_129
*428 FILLER_0_26_145
*429 FILLER_0_26_147
*430 FILLER_0_26_167
*431 FILLER_0_26_177
*432 FILLER_0_26_2
*433 FILLER_0_26_209
*434 FILLER_0_26_213
*435 FILLER_0_26_236
*436 FILLER_0_26_244
*437 FILLER_0_26_247
*438 FILLER_0_26_311
*439 FILLER_0_26_317
*440 FILLER_0_26_321
*441 FILLER_0_26_34
*442 FILLER_0_26_37
*443 FILLER_0_27_104
*444 FILLER_0_27_142
*445 FILLER_0_27_150
*446 FILLER_0_27_165
*447 FILLER_0_27_181
*448 FILLER_0_27_189
*449 FILLER_0_27_2
*450 FILLER_0_27_204
*451 FILLER_0_27_208
*452 FILLER_0_27_241
*453 FILLER_0_27_273
*454 FILLER_0_27_277
*455 FILLER_0_27_279
*456 FILLER_0_27_282
*457 FILLER_0_27_346
*458 FILLER_0_27_348
*459 FILLER_0_27_66
*460 FILLER_0_27_72
*461 FILLER_0_28_101
*462 FILLER_0_28_107
*463 FILLER_0_28_123
*464 FILLER_0_28_131
*465 FILLER_0_28_161
*466 FILLER_0_28_167
*467 FILLER_0_28_177
*468 FILLER_0_28_181
*469 FILLER_0_28_240
*470 FILLER_0_28_244
*471 FILLER_0_28_247
*472 FILLER_0_28_28
*473 FILLER_0_28_311
*474 FILLER_0_28_317
*475 FILLER_0_28_32
*476 FILLER_0_28_321
*477 FILLER_0_28_34
*478 FILLER_0_28_37
*479 FILLER_0_29_136
*480 FILLER_0_29_142
*481 FILLER_0_29_150
*482 FILLER_0_29_185
*483 FILLER_0_29_193
*484 FILLER_0_29_197
*485 FILLER_0_29_2
*486 FILLER_0_29_204
*487 FILLER_0_29_208
*488 FILLER_0_29_212
*489 FILLER_0_29_220
*490 FILLER_0_29_222
*491 FILLER_0_29_228
*492 FILLER_0_29_260
*493 FILLER_0_29_276
*494 FILLER_0_29_282
*495 FILLER_0_29_314
*496 FILLER_0_29_322
*497 FILLER_0_29_66
*498 FILLER_0_29_72
*499 FILLER_0_2_101
*500 FILLER_0_2_107
*501 FILLER_0_2_171
*502 FILLER_0_2_177
*503 FILLER_0_2_2
*504 FILLER_0_2_241
*505 FILLER_0_2_247
*506 FILLER_0_2_311
*507 FILLER_0_2_317
*508 FILLER_0_2_333
*509 FILLER_0_2_34
*510 FILLER_0_2_341
*511 FILLER_0_2_37
*512 FILLER_0_30_101
*513 FILLER_0_30_107
*514 FILLER_0_30_171
*515 FILLER_0_30_177
*516 FILLER_0_30_191
*517 FILLER_0_30_2
*518 FILLER_0_30_223
*519 FILLER_0_30_239
*520 FILLER_0_30_243
*521 FILLER_0_30_247
*522 FILLER_0_30_311
*523 FILLER_0_30_317
*524 FILLER_0_30_34
*525 FILLER_0_30_37
*526 FILLER_0_31_136
*527 FILLER_0_31_142
*528 FILLER_0_31_174
*529 FILLER_0_31_183
*530 FILLER_0_31_199
*531 FILLER_0_31_2
*532 FILLER_0_31_207
*533 FILLER_0_31_209
*534 FILLER_0_31_212
*535 FILLER_0_31_276
*536 FILLER_0_31_282
*537 FILLER_0_31_346
*538 FILLER_0_31_348
*539 FILLER_0_31_66
*540 FILLER_0_31_72
*541 FILLER_0_32_101
*542 FILLER_0_32_107
*543 FILLER_0_32_171
*544 FILLER_0_32_177
*545 FILLER_0_32_2
*546 FILLER_0_32_241
*547 FILLER_0_32_247
*548 FILLER_0_32_311
*549 FILLER_0_32_317
*550 FILLER_0_32_34
*551 FILLER_0_32_37
*552 FILLER_0_33_136
*553 FILLER_0_33_142
*554 FILLER_0_33_2
*555 FILLER_0_33_206
*556 FILLER_0_33_212
*557 FILLER_0_33_276
*558 FILLER_0_33_282
*559 FILLER_0_33_346
*560 FILLER_0_33_348
*561 FILLER_0_33_66
*562 FILLER_0_33_72
*563 FILLER_0_34_101
*564 FILLER_0_34_107
*565 FILLER_0_34_171
*566 FILLER_0_34_177
*567 FILLER_0_34_2
*568 FILLER_0_34_241
*569 FILLER_0_34_247
*570 FILLER_0_34_311
*571 FILLER_0_34_317
*572 FILLER_0_34_34
*573 FILLER_0_34_37
*574 FILLER_0_35_136
*575 FILLER_0_35_142
*576 FILLER_0_35_2
*577 FILLER_0_35_206
*578 FILLER_0_35_212
*579 FILLER_0_35_276
*580 FILLER_0_35_282
*581 FILLER_0_35_346
*582 FILLER_0_35_348
*583 FILLER_0_35_66
*584 FILLER_0_35_72
*585 FILLER_0_36_101
*586 FILLER_0_36_107
*587 FILLER_0_36_171
*588 FILLER_0_36_177
*589 FILLER_0_36_2
*590 FILLER_0_36_241
*591 FILLER_0_36_247
*592 FILLER_0_36_311
*593 FILLER_0_36_317
*594 FILLER_0_36_34
*595 FILLER_0_36_37
*596 FILLER_0_37_136
*597 FILLER_0_37_142
*598 FILLER_0_37_2
*599 FILLER_0_37_206
*600 FILLER_0_37_212
*601 FILLER_0_37_276
*602 FILLER_0_37_282
*603 FILLER_0_37_346
*604 FILLER_0_37_348
*605 FILLER_0_37_66
*606 FILLER_0_37_72
*607 FILLER_0_38_101
*608 FILLER_0_38_107
*609 FILLER_0_38_171
*610 FILLER_0_38_177
*611 FILLER_0_38_2
*612 FILLER_0_38_241
*613 FILLER_0_38_247
*614 FILLER_0_38_311
*615 FILLER_0_38_317
*616 FILLER_0_38_34
*617 FILLER_0_38_37
*618 FILLER_0_39_136
*619 FILLER_0_39_142
*620 FILLER_0_39_2
*621 FILLER_0_39_206
*622 FILLER_0_39_212
*623 FILLER_0_39_276
*624 FILLER_0_39_282
*625 FILLER_0_39_346
*626 FILLER_0_39_348
*627 FILLER_0_39_66
*628 FILLER_0_39_72
*629 FILLER_0_3_136
*630 FILLER_0_3_142
*631 FILLER_0_3_2
*632 FILLER_0_3_206
*633 FILLER_0_3_212
*634 FILLER_0_3_276
*635 FILLER_0_3_282
*636 FILLER_0_3_346
*637 FILLER_0_3_348
*638 FILLER_0_3_66
*639 FILLER_0_3_72
*640 FILLER_0_40_101
*641 FILLER_0_40_107
*642 FILLER_0_40_171
*643 FILLER_0_40_177
*644 FILLER_0_40_2
*645 FILLER_0_40_241
*646 FILLER_0_40_247
*647 FILLER_0_40_311
*648 FILLER_0_40_317
*649 FILLER_0_40_34
*650 FILLER_0_40_37
*651 FILLER_0_41_136
*652 FILLER_0_41_142
*653 FILLER_0_41_2
*654 FILLER_0_41_206
*655 FILLER_0_41_212
*656 FILLER_0_41_276
*657 FILLER_0_41_282
*658 FILLER_0_41_346
*659 FILLER_0_41_348
*660 FILLER_0_41_66
*661 FILLER_0_41_72
*662 FILLER_0_42_101
*663 FILLER_0_42_107
*664 FILLER_0_42_171
*665 FILLER_0_42_177
*666 FILLER_0_42_22
*667 FILLER_0_42_241
*668 FILLER_0_42_247
*669 FILLER_0_42_30
*670 FILLER_0_42_311
*671 FILLER_0_42_317
*672 FILLER_0_42_34
*673 FILLER_0_42_37
*674 FILLER_0_42_6
*675 FILLER_0_43_136
*676 FILLER_0_43_142
*677 FILLER_0_43_174
*678 FILLER_0_43_178
*679 FILLER_0_43_180
*680 FILLER_0_43_2
*681 FILLER_0_43_207
*682 FILLER_0_43_209
*683 FILLER_0_43_238
*684 FILLER_0_43_270
*685 FILLER_0_43_278
*686 FILLER_0_43_282
*687 FILLER_0_43_346
*688 FILLER_0_43_348
*689 FILLER_0_43_66
*690 FILLER_0_43_72
*691 FILLER_0_44_104
*692 FILLER_0_44_138
*693 FILLER_0_44_172
*694 FILLER_0_44_176
*695 FILLER_0_44_2
*696 FILLER_0_44_232
*697 FILLER_0_44_236
*698 FILLER_0_44_240
*699 FILLER_0_44_274
*700 FILLER_0_44_308
*701 FILLER_0_44_342
*702 FILLER_0_44_346
*703 FILLER_0_44_348
*704 FILLER_0_44_36
*705 FILLER_0_44_70
*706 FILLER_0_4_101
*707 FILLER_0_4_107
*708 FILLER_0_4_171
*709 FILLER_0_4_177
*710 FILLER_0_4_2
*711 FILLER_0_4_241
*712 FILLER_0_4_247
*713 FILLER_0_4_311
*714 FILLER_0_4_317
*715 FILLER_0_4_34
*716 FILLER_0_4_37
*717 FILLER_0_5_136
*718 FILLER_0_5_142
*719 FILLER_0_5_2
*720 FILLER_0_5_206
*721 FILLER_0_5_212
*722 FILLER_0_5_276
*723 FILLER_0_5_282
*724 FILLER_0_5_346
*725 FILLER_0_5_348
*726 FILLER_0_5_66
*727 FILLER_0_5_72
*728 FILLER_0_6_101
*729 FILLER_0_6_107
*730 FILLER_0_6_171
*731 FILLER_0_6_177
*732 FILLER_0_6_2
*733 FILLER_0_6_241
*734 FILLER_0_6_247
*735 FILLER_0_6_311
*736 FILLER_0_6_317
*737 FILLER_0_6_34
*738 FILLER_0_6_37
*739 FILLER_0_7_136
*740 FILLER_0_7_142
*741 FILLER_0_7_2
*742 FILLER_0_7_206
*743 FILLER_0_7_212
*744 FILLER_0_7_276
*745 FILLER_0_7_282
*746 FILLER_0_7_346
*747 FILLER_0_7_348
*748 FILLER_0_7_66
*749 FILLER_0_7_72
*750 FILLER_0_8_101
*751 FILLER_0_8_107
*752 FILLER_0_8_171
*753 FILLER_0_8_177
*754 FILLER_0_8_2
*755 FILLER_0_8_241
*756 FILLER_0_8_247
*757 FILLER_0_8_311
*758 FILLER_0_8_317
*759 FILLER_0_8_34
*760 FILLER_0_8_37
*761 FILLER_0_9_136
*762 FILLER_0_9_142
*763 FILLER_0_9_2
*764 FILLER_0_9_206
*765 FILLER_0_9_212
*766 FILLER_0_9_276
*767 FILLER_0_9_282
*768 FILLER_0_9_346
*769 FILLER_0_9_348
*770 FILLER_0_9_66
*771 FILLER_0_9_72
*772 PHY_EDGE_ROW_0_Left_45
*773 PHY_EDGE_ROW_0_Right_0
*774 PHY_EDGE_ROW_10_Left_55
*775 PHY_EDGE_ROW_10_Right_10
*776 PHY_EDGE_ROW_11_Left_56
*777 PHY_EDGE_ROW_11_Right_11
*778 PHY_EDGE_ROW_12_Left_57
*779 PHY_EDGE_ROW_12_Right_12
*780 PHY_EDGE_ROW_13_Left_58
*781 PHY_EDGE_ROW_13_Right_13
*782 PHY_EDGE_ROW_14_Left_59
*783 PHY_EDGE_ROW_14_Right_14
*784 PHY_EDGE_ROW_15_Left_60
*785 PHY_EDGE_ROW_15_Right_15
*786 PHY_EDGE_ROW_16_Left_61
*787 PHY_EDGE_ROW_16_Right_16
*788 PHY_EDGE_ROW_17_Left_62
*789 PHY_EDGE_ROW_17_Right_17
*790 PHY_EDGE_ROW_18_Left_63
*791 PHY_EDGE_ROW_18_Right_18
*792 PHY_EDGE_ROW_19_Left_64
*793 PHY_EDGE_ROW_19_Right_19
*794 PHY_EDGE_ROW_1_Left_46
*795 PHY_EDGE_ROW_1_Right_1
*796 PHY_EDGE_ROW_20_Left_65
*797 PHY_EDGE_ROW_20_Right_20
*798 PHY_EDGE_ROW_21_Left_66
*799 PHY_EDGE_ROW_21_Right_21
*800 PHY_EDGE_ROW_22_Left_67
*801 PHY_EDGE_ROW_22_Right_22
*802 PHY_EDGE_ROW_23_Left_68
*803 PHY_EDGE_ROW_23_Right_23
*804 PHY_EDGE_ROW_24_Left_69
*805 PHY_EDGE_ROW_24_Right_24
*806 PHY_EDGE_ROW_25_Left_70
*807 PHY_EDGE_ROW_25_Right_25
*808 PHY_EDGE_ROW_26_Left_71
*809 PHY_EDGE_ROW_26_Right_26
*810 PHY_EDGE_ROW_27_Left_72
*811 PHY_EDGE_ROW_27_Right_27
*812 PHY_EDGE_ROW_28_Left_73
*813 PHY_EDGE_ROW_28_Right_28
*814 PHY_EDGE_ROW_29_Left_74
*815 PHY_EDGE_ROW_29_Right_29
*816 PHY_EDGE_ROW_2_Left_47
*817 PHY_EDGE_ROW_2_Right_2
*818 PHY_EDGE_ROW_30_Left_75
*819 PHY_EDGE_ROW_30_Right_30
*820 PHY_EDGE_ROW_31_Left_76
*821 PHY_EDGE_ROW_31_Right_31
*822 PHY_EDGE_ROW_32_Left_77
*823 PHY_EDGE_ROW_32_Right_32
*824 PHY_EDGE_ROW_33_Left_78
*825 PHY_EDGE_ROW_33_Right_33
*826 PHY_EDGE_ROW_34_Left_79
*827 PHY_EDGE_ROW_34_Right_34
*828 PHY_EDGE_ROW_35_Left_80
*829 PHY_EDGE_ROW_35_Right_35
*830 PHY_EDGE_ROW_36_Left_81
*831 PHY_EDGE_ROW_36_Right_36
*832 PHY_EDGE_ROW_37_Left_82
*833 PHY_EDGE_ROW_37_Right_37
*834 PHY_EDGE_ROW_38_Left_83
*835 PHY_EDGE_ROW_38_Right_38
*836 PHY_EDGE_ROW_39_Left_84
*837 PHY_EDGE_ROW_39_Right_39
*838 PHY_EDGE_ROW_3_Left_48
*839 PHY_EDGE_ROW_3_Right_3
*840 PHY_EDGE_ROW_40_Left_85
*841 PHY_EDGE_ROW_40_Right_40
*842 PHY_EDGE_ROW_41_Left_86
*843 PHY_EDGE_ROW_41_Right_41
*844 PHY_EDGE_ROW_42_Left_87
*845 PHY_EDGE_ROW_42_Right_42
*846 PHY_EDGE_ROW_43_Left_88
*847 PHY_EDGE_ROW_43_Right_43
*848 PHY_EDGE_ROW_44_Left_89
*849 PHY_EDGE_ROW_44_Right_44
*850 PHY_EDGE_ROW_4_Left_49
*851 PHY_EDGE_ROW_4_Right_4
*852 PHY_EDGE_ROW_5_Left_50
*853 PHY_EDGE_ROW_5_Right_5
*854 PHY_EDGE_ROW_6_Left_51
*855 PHY_EDGE_ROW_6_Right_6
*856 PHY_EDGE_ROW_7_Left_52
*857 PHY_EDGE_ROW_7_Right_7
*858 PHY_EDGE_ROW_8_Left_53
*859 PHY_EDGE_ROW_8_Right_8
*860 PHY_EDGE_ROW_9_Left_54
*861 PHY_EDGE_ROW_9_Right_9
*862 TAP_TAPCELL_ROW_0_90
*863 TAP_TAPCELL_ROW_0_91
*864 TAP_TAPCELL_ROW_0_92
*865 TAP_TAPCELL_ROW_0_93
*866 TAP_TAPCELL_ROW_0_94
*867 TAP_TAPCELL_ROW_0_95
*868 TAP_TAPCELL_ROW_0_96
*869 TAP_TAPCELL_ROW_0_97
*870 TAP_TAPCELL_ROW_0_98
*871 TAP_TAPCELL_ROW_0_99
*872 TAP_TAPCELL_ROW_10_140
*873 TAP_TAPCELL_ROW_10_141
*874 TAP_TAPCELL_ROW_10_142
*875 TAP_TAPCELL_ROW_10_143
*876 TAP_TAPCELL_ROW_10_144
*877 TAP_TAPCELL_ROW_11_145
*878 TAP_TAPCELL_ROW_11_146
*879 TAP_TAPCELL_ROW_11_147
*880 TAP_TAPCELL_ROW_11_148
*881 TAP_TAPCELL_ROW_12_149
*882 TAP_TAPCELL_ROW_12_150
*883 TAP_TAPCELL_ROW_12_151
*884 TAP_TAPCELL_ROW_12_152
*885 TAP_TAPCELL_ROW_12_153
*886 TAP_TAPCELL_ROW_13_154
*887 TAP_TAPCELL_ROW_13_155
*888 TAP_TAPCELL_ROW_13_156
*889 TAP_TAPCELL_ROW_13_157
*890 TAP_TAPCELL_ROW_14_158
*891 TAP_TAPCELL_ROW_14_159
*892 TAP_TAPCELL_ROW_14_160
*893 TAP_TAPCELL_ROW_14_161
*894 TAP_TAPCELL_ROW_14_162
*895 TAP_TAPCELL_ROW_15_163
*896 TAP_TAPCELL_ROW_15_164
*897 TAP_TAPCELL_ROW_15_165
*898 TAP_TAPCELL_ROW_15_166
*899 TAP_TAPCELL_ROW_16_167
*900 TAP_TAPCELL_ROW_16_168
*901 TAP_TAPCELL_ROW_16_169
*902 TAP_TAPCELL_ROW_16_170
*903 TAP_TAPCELL_ROW_16_171
*904 TAP_TAPCELL_ROW_17_172
*905 TAP_TAPCELL_ROW_17_173
*906 TAP_TAPCELL_ROW_17_174
*907 TAP_TAPCELL_ROW_17_175
*908 TAP_TAPCELL_ROW_18_176
*909 TAP_TAPCELL_ROW_18_177
*910 TAP_TAPCELL_ROW_18_178
*911 TAP_TAPCELL_ROW_18_179
*912 TAP_TAPCELL_ROW_18_180
*913 TAP_TAPCELL_ROW_19_181
*914 TAP_TAPCELL_ROW_19_182
*915 TAP_TAPCELL_ROW_19_183
*916 TAP_TAPCELL_ROW_19_184
*917 TAP_TAPCELL_ROW_1_100
*918 TAP_TAPCELL_ROW_1_101
*919 TAP_TAPCELL_ROW_1_102
*920 TAP_TAPCELL_ROW_1_103
*921 TAP_TAPCELL_ROW_20_185
*922 TAP_TAPCELL_ROW_20_186
*923 TAP_TAPCELL_ROW_20_187
*924 TAP_TAPCELL_ROW_20_188
*925 TAP_TAPCELL_ROW_20_189
*926 TAP_TAPCELL_ROW_21_190
*927 TAP_TAPCELL_ROW_21_191
*928 TAP_TAPCELL_ROW_21_192
*929 TAP_TAPCELL_ROW_21_193
*930 TAP_TAPCELL_ROW_22_194
*931 TAP_TAPCELL_ROW_22_195
*932 TAP_TAPCELL_ROW_22_196
*933 TAP_TAPCELL_ROW_22_197
*934 TAP_TAPCELL_ROW_22_198
*935 TAP_TAPCELL_ROW_23_199
*936 TAP_TAPCELL_ROW_23_200
*937 TAP_TAPCELL_ROW_23_201
*938 TAP_TAPCELL_ROW_23_202
*939 TAP_TAPCELL_ROW_24_203
*940 TAP_TAPCELL_ROW_24_204
*941 TAP_TAPCELL_ROW_24_205
*942 TAP_TAPCELL_ROW_24_206
*943 TAP_TAPCELL_ROW_24_207
*944 TAP_TAPCELL_ROW_25_208
*945 TAP_TAPCELL_ROW_25_209
*946 TAP_TAPCELL_ROW_25_210
*947 TAP_TAPCELL_ROW_25_211
*948 TAP_TAPCELL_ROW_26_212
*949 TAP_TAPCELL_ROW_26_213
*950 TAP_TAPCELL_ROW_26_214
*951 TAP_TAPCELL_ROW_26_215
*952 TAP_TAPCELL_ROW_26_216
*953 TAP_TAPCELL_ROW_27_217
*954 TAP_TAPCELL_ROW_27_218
*955 TAP_TAPCELL_ROW_27_219
*956 TAP_TAPCELL_ROW_27_220
*957 TAP_TAPCELL_ROW_28_221
*958 TAP_TAPCELL_ROW_28_222
*959 TAP_TAPCELL_ROW_28_223
*960 TAP_TAPCELL_ROW_28_224
*961 TAP_TAPCELL_ROW_28_225
*962 TAP_TAPCELL_ROW_29_226
*963 TAP_TAPCELL_ROW_29_227
*964 TAP_TAPCELL_ROW_29_228
*965 TAP_TAPCELL_ROW_29_229
*966 TAP_TAPCELL_ROW_2_104
*967 TAP_TAPCELL_ROW_2_105
*968 TAP_TAPCELL_ROW_2_106
*969 TAP_TAPCELL_ROW_2_107
*970 TAP_TAPCELL_ROW_2_108
*971 TAP_TAPCELL_ROW_30_230
*972 TAP_TAPCELL_ROW_30_231
*973 TAP_TAPCELL_ROW_30_232
*974 TAP_TAPCELL_ROW_30_233
*975 TAP_TAPCELL_ROW_30_234
*976 TAP_TAPCELL_ROW_31_235
*977 TAP_TAPCELL_ROW_31_236
*978 TAP_TAPCELL_ROW_31_237
*979 TAP_TAPCELL_ROW_31_238
*980 TAP_TAPCELL_ROW_32_239
*981 TAP_TAPCELL_ROW_32_240
*982 TAP_TAPCELL_ROW_32_241
*983 TAP_TAPCELL_ROW_32_242
*984 TAP_TAPCELL_ROW_32_243
*985 TAP_TAPCELL_ROW_33_244
*986 TAP_TAPCELL_ROW_33_245
*987 TAP_TAPCELL_ROW_33_246
*988 TAP_TAPCELL_ROW_33_247
*989 TAP_TAPCELL_ROW_34_248
*990 TAP_TAPCELL_ROW_34_249
*991 TAP_TAPCELL_ROW_34_250
*992 TAP_TAPCELL_ROW_34_251
*993 TAP_TAPCELL_ROW_34_252
*994 TAP_TAPCELL_ROW_35_253
*995 TAP_TAPCELL_ROW_35_254
*996 TAP_TAPCELL_ROW_35_255
*997 TAP_TAPCELL_ROW_35_256
*998 TAP_TAPCELL_ROW_36_257
*999 TAP_TAPCELL_ROW_36_258
*1000 TAP_TAPCELL_ROW_36_259
*1001 TAP_TAPCELL_ROW_36_260
*1002 TAP_TAPCELL_ROW_36_261
*1003 TAP_TAPCELL_ROW_37_262
*1004 TAP_TAPCELL_ROW_37_263
*1005 TAP_TAPCELL_ROW_37_264
*1006 TAP_TAPCELL_ROW_37_265
*1007 TAP_TAPCELL_ROW_38_266
*1008 TAP_TAPCELL_ROW_38_267
*1009 TAP_TAPCELL_ROW_38_268
*1010 TAP_TAPCELL_ROW_38_269
*1011 TAP_TAPCELL_ROW_38_270
*1012 TAP_TAPCELL_ROW_39_271
*1013 TAP_TAPCELL_ROW_39_272
*1014 TAP_TAPCELL_ROW_39_273
*1015 TAP_TAPCELL_ROW_39_274
*1016 TAP_TAPCELL_ROW_3_109
*1017 TAP_TAPCELL_ROW_3_110
*1018 TAP_TAPCELL_ROW_3_111
*1019 TAP_TAPCELL_ROW_3_112
*1020 TAP_TAPCELL_ROW_40_275
*1021 TAP_TAPCELL_ROW_40_276
*1022 TAP_TAPCELL_ROW_40_277
*1023 TAP_TAPCELL_ROW_40_278
*1024 TAP_TAPCELL_ROW_40_279
*1025 TAP_TAPCELL_ROW_41_280
*1026 TAP_TAPCELL_ROW_41_281
*1027 TAP_TAPCELL_ROW_41_282
*1028 TAP_TAPCELL_ROW_41_283
*1029 TAP_TAPCELL_ROW_42_284
*1030 TAP_TAPCELL_ROW_42_285
*1031 TAP_TAPCELL_ROW_42_286
*1032 TAP_TAPCELL_ROW_42_287
*1033 TAP_TAPCELL_ROW_42_288
*1034 TAP_TAPCELL_ROW_43_289
*1035 TAP_TAPCELL_ROW_43_290
*1036 TAP_TAPCELL_ROW_43_291
*1037 TAP_TAPCELL_ROW_43_292
*1038 TAP_TAPCELL_ROW_44_293
*1039 TAP_TAPCELL_ROW_44_294
*1040 TAP_TAPCELL_ROW_44_295
*1041 TAP_TAPCELL_ROW_44_296
*1042 TAP_TAPCELL_ROW_44_297
*1043 TAP_TAPCELL_ROW_44_298
*1044 TAP_TAPCELL_ROW_44_299
*1045 TAP_TAPCELL_ROW_44_300
*1046 TAP_TAPCELL_ROW_44_301
*1047 TAP_TAPCELL_ROW_44_302
*1048 TAP_TAPCELL_ROW_4_113
*1049 TAP_TAPCELL_ROW_4_114
*1050 TAP_TAPCELL_ROW_4_115
*1051 TAP_TAPCELL_ROW_4_116
*1052 TAP_TAPCELL_ROW_4_117
*1053 TAP_TAPCELL_ROW_5_118
*1054 TAP_TAPCELL_ROW_5_119
*1055 TAP_TAPCELL_ROW_5_120
*1056 TAP_TAPCELL_ROW_5_121
*1057 TAP_TAPCELL_ROW_6_122
*1058 TAP_TAPCELL_ROW_6_123
*1059 TAP_TAPCELL_ROW_6_124
*1060 TAP_TAPCELL_ROW_6_125
*1061 TAP_TAPCELL_ROW_6_126
*1062 TAP_TAPCELL_ROW_7_127
*1063 TAP_TAPCELL_ROW_7_128
*1064 TAP_TAPCELL_ROW_7_129
*1065 TAP_TAPCELL_ROW_7_130
*1066 TAP_TAPCELL_ROW_8_131
*1067 TAP_TAPCELL_ROW_8_132
*1068 TAP_TAPCELL_ROW_8_133
*1069 TAP_TAPCELL_ROW_8_134
*1070 TAP_TAPCELL_ROW_8_135
*1071 TAP_TAPCELL_ROW_9_136
*1072 TAP_TAPCELL_ROW_9_137
*1073 TAP_TAPCELL_ROW_9_138
*1074 TAP_TAPCELL_ROW_9_139
*1075 _072_
*1076 _073_
*1077 _074_
*1078 _075_
*1079 _076_
*1080 _077_
*1081 _078_
*1082 _079_
*1083 _080_
*1084 _081_
*1085 _082_
*1086 _083_
*1087 _084_
*1088 _085_
*1089 _086_
*1090 _087_
*1091 _088_
*1092 _089_
*1093 _090_
*1094 _091_
*1095 _092_
*1096 _093_
*1097 _094_
*1098 _095_
*1099 _096_
*1100 _097_
*1101 _098_
*1102 _099_
*1103 _100_
*1104 _101_
*1105 _102_
*1106 _103_
*1107 _104_
*1108 _105_
*1109 _106_
*1110 _107_
*1111 _108_
*1112 _109_
*1113 _110_
*1114 _111_
*1115 _112_
*1116 _113_
*1117 _114_
*1118 _115_
*1119 _116_
*1120 _117_
*1121 _118_
*1122 _119_
*1123 _120_
*1124 _121_
*1125 _122_
*1126 _123_
*1127 _124_
*1128 _125_
*1129 _126_
*1130 _127_
*1131 _128_
*1132 _129_
*1133 _130_
*1134 _131_
*1135 _132_
*1136 _133_
*1137 _134_
*1138 _135_
*1139 _136_
*1140 _137_
*1141 _138_
*1142 _139_
*1143 _140_
*1144 _141_
*1145 _142_
*1146 _143_
*1147 _144_
*1148 _145_
*1149 _146_
*1150 _147_
*1151 _148_
*1152 _149_
*1153 _150_
*1154 _151_
*1155 _152_
*1156 _153_
*1157 _154_
*1158 _155_
*1159 _156_
*1160 _157_
*1161 _158_
*1162 _159_
*1163 _160_
*1164 _161_
*1165 _162_
*1166 _163_
*1167 _166_
*1168 _167_
*1169 _168_
*1170 _169_
*1171 _170_
*1172 _171_
*1173 _172_
*1174 _173_
*1175 clkbuf_0_clk
*1176 clkbuf_1_0__f_clk
*1177 clkbuf_1_1__f_clk
*1178 ita46_25
*1179 ita46_26
*1180 output1
*1181 output10
*1182 output11
*1183 output12
*1184 output13
*1185 output14
*1186 output15
*1187 output16
*1188 output17
*1189 output18
*1190 output19
*1191 output2
*1192 output20
*1193 output21
*1194 output22
*1195 output23
*1196 output24
*1197 output3
*1198 output4
*1199 output5
*1200 output6
*1201 output7
*1202 output8
*1203 output9

*PORTS
clk I
segm[0] O
segm[10] O
segm[11] O
segm[12] O
segm[13] O
segm[1] O
segm[2] O
segm[3] O
segm[4] O
segm[5] O
segm[6] O
segm[7] O
segm[8] O
segm[9] O
sel[0] O
sel[10] O
sel[11] O
sel[1] O
sel[2] O
sel[3] O
sel[4] O
sel[5] O
sel[6] O
sel[7] O
sel[8] O
sel[9] O

*D_NET *1 0.0110267
*CONN
*P clk I
*I *133:I I *D gf180mcu_fd_sc_mcu7t5v0__antenna
*I *1175:I I *D gf180mcu_fd_sc_mcu7t5v0__clkbuf_16
*CAP
1 clk 0.00427292
2 *133:I 0
3 *1175:I 0.000486104
4 *1:9 0.00475902
5 *1175:I *1078:A1 0.00012512
6 *1175:I *1078:A2 0.000538909
7 *1175:I *1079:A1 0
8 *1175:I *1088:A1 0
9 *1175:I *1088:A2 3.2335e-05
10 *1175:I *1153:D 3.0177e-06
11 *1175:I *71:18 1.13542e-05
12 *1175:I *72:8 0.000345234
13 *1175:I *72:31 0.0001943
14 *1175:I *81:14 6.29105e-05
15 *1175:I *103:80 0
16 *1:9 *1080:A1 2.47238e-05
17 *1:9 *1152:D 4.8063e-05
18 *1:9 *1159:CLK 0
19 *1:9 *69:18 0.000122655
20 *1:9 *91:8 0
*RES
1 clk *1:9 37.755 
2 *1:9 *1175:I 18.18 
3 *1:9 *133:I 4.5 
*END

*D_NET *2 0.000781901
*CONN
*P segm[0] O
*I *1180:Z O *D gf180mcu_fd_sc_mcu7t5v0__buf_8
*CAP
1 segm[0] 0.00035621
2 *1180:Z 0.00035621
3 segm[0] sel[11] 6.94814e-05
*RES
1 *1180:Z segm[0] 11.835 
*END

*D_NET *3 0.00184321
*CONN
*P segm[10] O
*I *1191:Z O *D gf180mcu_fd_sc_mcu7t5v0__buf_8
*CAP
1 segm[10] 0.000921604
2 *1191:Z 0.000921604
*RES
1 *1191:Z segm[10] 20.205 
*END

*D_NET *4 0.000561528
*CONN
*P segm[11] O
*I *1197:Z O *D gf180mcu_fd_sc_mcu7t5v0__buf_8
*CAP
1 segm[11] 0.000211283
2 *1197:Z 0.000211283
3 segm[11] segm[12] 6.94814e-05
4 segm[11] segm[13] 6.94814e-05
*RES
1 *1197:Z segm[11] 11.295 
*END

*D_NET *5 0.000491162
*CONN
*P segm[12] O
*I *1198:Z O *D gf180mcu_fd_sc_mcu7t5v0__buf_8
*CAP
1 segm[12] 0.000210841
2 *1198:Z 0.000210841
3 segm[11] segm[12] 6.94814e-05
*RES
1 *1198:Z segm[12] 11.025 
*END

*D_NET *6 0.000599059
*CONN
*P segm[13] O
*I *1199:Z O *D gf180mcu_fd_sc_mcu7t5v0__buf_8
*CAP
1 segm[13] 0.000264789
2 *1199:Z 0.000264789
3 segm[11] segm[13] 6.94814e-05
*RES
1 *1199:Z segm[13] 11.475 
*END

*D_NET *7 0.000571983
*CONN
*P segm[1] O
*I *1178:ZN O *D gf180mcu_fd_sc_mcu7t5v0__tiel
*CAP
1 segm[1] 0.000285992
2 *1178:ZN 0.000285992
*RES
1 *1178:ZN segm[1] 10.935 
*END

*D_NET *8 0.0024738
*CONN
*P segm[2] O
*I *1200:Z O *D gf180mcu_fd_sc_mcu7t5v0__buf_8
*CAP
1 segm[2] 0.00116752
2 *1200:Z 0.00116752
3 segm[2] sel[3] 0.00013875
4 segm[2] sel[7] 0
*RES
1 *1200:Z segm[2] 22.815 
*END

*D_NET *9 0.000660607
*CONN
*P segm[3] O
*I *1201:Z O *D gf180mcu_fd_sc_mcu7t5v0__buf_8
*CAP
1 segm[3] 0.00026368
2 *1201:Z 0.00026368
3 segm[3] sel[11] 6.66239e-05
4 segm[3] sel[4] 6.66239e-05
*RES
1 *1201:Z segm[3] 11.475 
*END

*D_NET *10 0.000399217
*CONN
*P segm[4] O
*I *1179:ZN O *D gf180mcu_fd_sc_mcu7t5v0__tiel
*CAP
1 segm[4] 0.000199609
2 *1179:ZN 0.000199609
*RES
1 *1179:ZN segm[4] 10.665 
*END

*D_NET *11 0.00247612
*CONN
*P segm[5] O
*I *1202:Z O *D gf180mcu_fd_sc_mcu7t5v0__buf_8
*CAP
1 segm[5] 0.00098194
2 *1202:Z 0.00098194
3 segm[5] sel[3] 0.00013875
4 segm[5] *1189:I 0.00037349
*RES
1 *1202:Z segm[5] 21.735 
*END

*D_NET *12 0.00049679
*CONN
*P segm[6] O
*I *1203:Z O *D gf180mcu_fd_sc_mcu7t5v0__buf_8
*CAP
1 segm[6] 0.000178914
2 *1203:Z 0.000178914
3 segm[6] segm[7] 6.94814e-05
4 segm[6] sel[4] 6.94814e-05
*RES
1 *1203:Z segm[6] 11.025 
*END

*D_NET *13 0.00073723
*CONN
*P segm[7] O
*I *1181:Z O *D gf180mcu_fd_sc_mcu7t5v0__buf_8
*CAP
1 segm[7] 0.0003044
2 *1181:Z 0.0003044
3 segm[7] sel[0] 5.89484e-05
4 segm[6] segm[7] 6.94814e-05
*RES
1 *1181:Z segm[7] 11.745 
*END

*D_NET *14 0.000609443
*CONN
*P segm[8] O
*I *1182:Z O *D gf180mcu_fd_sc_mcu7t5v0__buf_8
*CAP
1 segm[8] 0.000271411
2 *1182:Z 0.000271411
3 segm[8] segm[9] 6.66205e-05
*RES
1 *1182:Z segm[8] 11.295 
*END

*D_NET *15 0.000611544
*CONN
*P segm[9] O
*I *1183:Z O *D gf180mcu_fd_sc_mcu7t5v0__buf_8
*CAP
1 segm[9] 0.000272462
2 *1183:Z 0.000272462
3 segm[8] segm[9] 6.66205e-05
*RES
1 *1183:Z segm[9] 11.475 
*END

*D_NET *16 0.000692407
*CONN
*P sel[0] O
*I *1184:Z O *D gf180mcu_fd_sc_mcu7t5v0__buf_8
*CAP
1 sel[0] 0.000287255
2 *1184:Z 0.000287255
3 sel[0] sel[9] 5.89484e-05
4 segm[7] sel[0] 5.89484e-05
*RES
1 *1184:Z sel[0] 11.295 
*END

*D_NET *17 0.00111658
*CONN
*P sel[10] O
*I *1185:Z O *D gf180mcu_fd_sc_mcu7t5v0__buf_8
*CAP
1 sel[10] 0.000520462
2 *1185:Z 0.000520462
3 sel[10] sel[8] 7.56576e-05
*RES
1 *1185:Z sel[10] 13.095 
*END

*D_NET *18 0.000509261
*CONN
*P sel[11] O
*I *1186:Z O *D gf180mcu_fd_sc_mcu7t5v0__buf_8
*CAP
1 sel[11] 0.000186578
2 *1186:Z 0.000186578
3 segm[0] sel[11] 6.94814e-05
4 segm[3] sel[11] 6.66239e-05
*RES
1 *1186:Z sel[11] 11.025 
*END

*D_NET *19 0.000897491
*CONN
*P sel[1] O
*I *1187:Z O *D gf180mcu_fd_sc_mcu7t5v0__buf_8
*CAP
1 sel[1] 0.000448745
2 *1187:Z 0.000448745
*RES
1 *1187:Z sel[1] 12.195 
*END

*D_NET *20 0.000941763
*CONN
*P sel[2] O
*I *1188:Z O *D gf180mcu_fd_sc_mcu7t5v0__buf_8
*CAP
1 sel[2] 0.000422495
2 *1188:Z 0.000422495