*SPEF "ieee 1481-1999"
*DESIGN "ita57"
*DATE "11:11:11 Fri 11 11, 1111"
*VENDOR "OpenRCX"
*PROGRAM "Parallel Extraction"
*VERSION "1.0"
*DESIGN_FLOW "NAME_SCOPE LOCAL" "PIN_CAP NONE"
*DIVIDER /
*DELIMITER :
*BUS_DELIMITER []
*T_UNIT 1 NS
*C_UNIT 1 PF
*R_UNIT 1 OHM
*L_UNIT 1 HENRY

*NAME_MAP
*1 clk
*2 net24
*3 segm[10]
*4 segm[11]
*5 segm[12]
*6 segm[13]
*7 segm[1]
*8 segm[2]
*9 net25
*10 segm[4]
*11 net26
*12 segm[6]
*13 segm[7]
*14 segm[8]
*15 segm[9]
*16 sel[0]
*17 sel[10]
*18 sel[11]
*19 sel[1]
*20 sel[2]
*21 sel[3]
*22 sel[4]
*23 sel[5]
*24 sel[6]
*25 sel[7]
*26 sel[8]
*27 sel[9]
*30 _000_
*31 _001_
*32 _002_
*33 _003_
*34 _004_
*35 _005_
*36 _006_
*37 _007_
*38 _008_
*39 _009_
*40 _010_
*41 _011_
*42 _012_
*43 _013_
*44 _014_
*45 _015_
*46 _016_
*47 _017_
*48 _018_
*49 _019_
*50 _020_
*51 _021_
*52 _022_
*53 _023_
*54 _024_
*55 _025_
*56 _026_
*57 _027_
*58 _028_
*59 _029_
*60 _030_
*61 _031_
*62 _032_
*63 _033_
*64 _034_
*65 _035_
*66 _036_
*67 _037_
*68 _038_
*69 _039_
*70 _040_
*71 _041_
*72 _042_
*73 _043_
*74 _044_
*75 _045_
*76 _046_
*77 _047_
*78 _048_
*79 _049_
*80 _050_
*81 _051_
*82 _052_
*83 _053_
*84 _054_
*85 _055_
*86 _056_
*87 _057_
*88 _058_
*89 _059_
*90 _060_
*91 _061_
*92 _062_
*93 _063_
*94 _064_
*95 _065_
*96 _066_
*97 _067_
*98 _068_
*99 _069_
*100 _070_
*101 _071_
*102 _072_
*103 _073_
*104 _074_
*105 _075_
*106 _076_
*107 _077_
*108 _078_
*109 _079_
*110 _080_
*111 _081_
*112 _082_
*113 _083_
*114 _084_
*115 _085_
*116 _086_
*117 _087_
*118 _088_
*119 _089_
*120 _090_
*121 _091_
*122 _092_
*123 _093_
*124 _094_
*125 _095_
*126 _096_
*127 _097_
*128 _098_
*129 _099_
*130 _100_
*131 _101_
*132 clknet_0_clk
*133 clknet_1_0__leaf_clk
*134 clknet_1_1__leaf_clk
*135 dut57\.count\[0\]
*136 dut57\.count\[1\]
*137 dut57\.count\[2\]
*138 dut57\.count\[3\]
*139 net1
*140 net10
*141 net11
*142 net12
*143 net13
*144 net14
*145 net15
*146 net16
*147 net17
*148 net18
*149 net19
*150 net2
*151 net20
*152 net21
*153 net22
*154 net23
*155 net3
*156 net4
*157 net5
*158 net6
*159 net7
*160 net8
*161 net9
*162 ANTENNA__204__CLK
*163 ANTENNA__205__CLK
*164 ANTENNA__206__CLK
*165 ANTENNA__207__CLK
*166 ANTENNA__208__CLK
*167 ANTENNA__209__CLK
*168 ANTENNA__210__CLK
*169 ANTENNA__211__CLK
*170 ANTENNA__212__CLK
*171 ANTENNA__213__CLK
*172 ANTENNA__214__CLK
*173 ANTENNA__215__CLK
*174 ANTENNA__216__CLK
*175 ANTENNA__217__CLK
*176 ANTENNA__218__CLK
*177 ANTENNA__219__CLK
*178 ANTENNA__220__CLK
*179 ANTENNA__221__CLK
*180 ANTENNA__222__CLK
*181 ANTENNA__223__CLK
*182 ANTENNA__224__CLK
*183 ANTENNA__225__CLK
*184 ANTENNA__226__CLK
*185 ANTENNA__227__CLK
*186 ANTENNA_clkbuf_0_clk_I
*187 FILLER_0_0_104
*188 FILLER_0_0_138
*189 FILLER_0_0_142
*190 FILLER_0_0_172
*191 FILLER_0_0_174
*192 FILLER_0_0_2
*193 FILLER_0_0_201
*194 FILLER_0_0_203
*195 FILLER_0_0_206
*196 FILLER_0_0_240
*197 FILLER_0_0_274
*198 FILLER_0_0_308
*199 FILLER_0_0_342
*200 FILLER_0_0_346
*201 FILLER_0_0_348
*202 FILLER_0_0_36
*203 FILLER_0_0_70
*204 FILLER_0_10_101
*205 FILLER_0_10_107
*206 FILLER_0_10_171
*207 FILLER_0_10_177
*208 FILLER_0_10_2
*209 FILLER_0_10_241
*210 FILLER_0_10_247
*211 FILLER_0_10_311
*212 FILLER_0_10_317
*213 FILLER_0_10_333
*214 FILLER_0_10_34
*215 FILLER_0_10_341
*216 FILLER_0_10_37
*217 FILLER_0_11_136
*218 FILLER_0_11_142
*219 FILLER_0_11_2
*220 FILLER_0_11_206
*221 FILLER_0_11_212
*222 FILLER_0_11_276
*223 FILLER_0_11_282
*224 FILLER_0_11_346
*225 FILLER_0_11_348
*226 FILLER_0_11_66
*227 FILLER_0_11_72
*228 FILLER_0_12_101
*229 FILLER_0_12_107
*230 FILLER_0_12_139
*231 FILLER_0_12_155
*232 FILLER_0_12_163
*233 FILLER_0_12_170
*234 FILLER_0_12_174
*235 FILLER_0_12_177
*236 FILLER_0_12_2
*237 FILLER_0_12_241
*238 FILLER_0_12_247
*239 FILLER_0_12_311
*240 FILLER_0_12_317
*241 FILLER_0_12_34
*242 FILLER_0_12_37
*243 FILLER_0_13_100
*244 FILLER_0_13_102
*245 FILLER_0_13_132
*246 FILLER_0_13_136
*247 FILLER_0_13_142
*248 FILLER_0_13_178
*249 FILLER_0_13_2
*250 FILLER_0_13_212
*251 FILLER_0_13_276
*252 FILLER_0_13_282
*253 FILLER_0_13_346
*254 FILLER_0_13_348
*255 FILLER_0_13_66
*256 FILLER_0_13_72
*257 FILLER_0_13_88
*258 FILLER_0_13_96
*259 FILLER_0_14_101
*260 FILLER_0_14_107
*261 FILLER_0_14_115
*262 FILLER_0_14_121
*263 FILLER_0_14_125
*264 FILLER_0_14_155
*265 FILLER_0_14_161
*266 FILLER_0_14_165
*267 FILLER_0_14_173
*268 FILLER_0_14_177
*269 FILLER_0_14_2
*270 FILLER_0_14_241
*271 FILLER_0_14_247
*272 FILLER_0_14_311
*273 FILLER_0_14_317
*274 FILLER_0_14_34
*275 FILLER_0_14_37
*276 FILLER_0_15_119
*277 FILLER_0_15_134
*278 FILLER_0_15_138
*279 FILLER_0_15_150
*280 FILLER_0_15_159
*281 FILLER_0_15_2
*282 FILLER_0_15_202
*283 FILLER_0_15_206
*284 FILLER_0_15_212
*285 FILLER_0_15_276
*286 FILLER_0_15_282
*287 FILLER_0_15_346
*288 FILLER_0_15_348
*289 FILLER_0_15_66
*290 FILLER_0_15_72
*291 FILLER_0_15_88
*292 FILLER_0_16_101
*293 FILLER_0_16_107
*294 FILLER_0_16_115
*295 FILLER_0_16_127
*296 FILLER_0_16_143
*297 FILLER_0_16_149
*298 FILLER_0_16_165
*299 FILLER_0_16_177
*300 FILLER_0_16_181
*301 FILLER_0_16_2
*302 FILLER_0_16_211
*303 FILLER_0_16_215
*304 FILLER_0_16_231
*305 FILLER_0_16_239
*306 FILLER_0_16_243
*307 FILLER_0_16_247
*308 FILLER_0_16_311
*309 FILLER_0_16_317
*310 FILLER_0_16_34
*311 FILLER_0_16_37
*312 FILLER_0_17_106
*313 FILLER_0_17_114
*314 FILLER_0_17_134
*315 FILLER_0_17_138
*316 FILLER_0_17_142
*317 FILLER_0_17_158
*318 FILLER_0_17_166
*319 FILLER_0_17_168
*320 FILLER_0_17_183
*321 FILLER_0_17_197
*322 FILLER_0_17_205
*323 FILLER_0_17_209
*324 FILLER_0_17_241
*325 FILLER_0_17_245
*326 FILLER_0_17_277
*327 FILLER_0_17_279
*328 FILLER_0_17_28
*329 FILLER_0_17_282
*330 FILLER_0_17_346
*331 FILLER_0_17_348
*332 FILLER_0_17_60
*333 FILLER_0_17_68
*334 FILLER_0_17_72
*335 FILLER_0_18_104
*336 FILLER_0_18_113
*337 FILLER_0_18_126
*338 FILLER_0_18_128
*339 FILLER_0_18_140
*340 FILLER_0_18_144
*341 FILLER_0_18_151
*342 FILLER_0_18_159
*343 FILLER_0_18_173
*344 FILLER_0_18_187
*345 FILLER_0_18_203
*346 FILLER_0_18_211
*347 FILLER_0_18_215
*348 FILLER_0_18_226
*349 FILLER_0_18_232
*350 FILLER_0_18_238
*351 FILLER_0_18_242
*352 FILLER_0_18_244
*353 FILLER_0_18_247
*354 FILLER_0_18_28
*355 FILLER_0_18_311
*356 FILLER_0_18_317
*357 FILLER_0_18_32
*358 FILLER_0_18_321
*359 FILLER_0_18_34
*360 FILLER_0_18_37
*361 FILLER_0_18_69
*362 FILLER_0_18_73
*363 FILLER_0_19_115
*364 FILLER_0_19_131
*365 FILLER_0_19_139
*366 FILLER_0_19_142
*367 FILLER_0_19_150
*368 FILLER_0_19_154
*369 FILLER_0_19_195
*370 FILLER_0_19_203
*371 FILLER_0_19_207
*372 FILLER_0_19_216
*373 FILLER_0_19_246
*374 FILLER_0_19_278
*375 FILLER_0_19_28
*376 FILLER_0_19_282
*377 FILLER_0_19_314
*378 FILLER_0_19_322
*379 FILLER_0_19_60
*380 FILLER_0_19_68
*381 FILLER_0_19_72
*382 FILLER_0_19_88
*383 FILLER_0_19_90
*384 FILLER_0_19_95
*385 FILLER_0_1_136
*386 FILLER_0_1_142
*387 FILLER_0_1_195
*388 FILLER_0_1_2
*389 FILLER_0_1_203
*390 FILLER_0_1_207
*391 FILLER_0_1_209
*392 FILLER_0_1_212
*393 FILLER_0_1_276
*394 FILLER_0_1_282
*395 FILLER_0_1_346
*396 FILLER_0_1_348
*397 FILLER_0_1_66
*398 FILLER_0_1_72
*399 FILLER_0_20_101
*400 FILLER_0_20_107
*401 FILLER_0_20_111
*402 FILLER_0_20_139
*403 FILLER_0_20_147
*404 FILLER_0_20_151
*405 FILLER_0_20_194
*406 FILLER_0_20_2
*407 FILLER_0_20_210
*408 FILLER_0_20_218
*409 FILLER_0_20_230
*410 FILLER_0_20_238
*411 FILLER_0_20_242
*412 FILLER_0_20_244
*413 FILLER_0_20_247
*414 FILLER_0_20_311
*415 FILLER_0_20_317
*416 FILLER_0_20_34
*417 FILLER_0_20_37
*418 FILLER_0_21_104
*419 FILLER_0_21_116
*420 FILLER_0_21_150
*421 FILLER_0_21_154
*422 FILLER_0_21_179
*423 FILLER_0_21_198
*424 FILLER_0_21_2
*425 FILLER_0_21_202
*426 FILLER_0_21_209
*427 FILLER_0_21_212
*428 FILLER_0_21_214
*429 FILLER_0_21_227
*430 FILLER_0_21_239
*431 FILLER_0_21_271
*432 FILLER_0_21_279
*433 FILLER_0_21_282
*434 FILLER_0_21_346
*435 FILLER_0_21_348
*436 FILLER_0_21_66
*437 FILLER_0_21_72
*438 FILLER_0_21_74
*439 FILLER_0_22_101
*440 FILLER_0_22_107
*441 FILLER_0_22_111
*442 FILLER_0_22_171
*443 FILLER_0_22_185
*444 FILLER_0_22_2
*445 FILLER_0_22_208
*446 FILLER_0_22_247
*447 FILLER_0_22_311
*448 FILLER_0_22_317
*449 FILLER_0_22_321
*450 FILLER_0_22_34
*451 FILLER_0_22_37
*452 FILLER_0_23_100
*453 FILLER_0_23_126
*454 FILLER_0_23_133
*455 FILLER_0_23_148
*456 FILLER_0_23_2
*457 FILLER_0_23_208
*458 FILLER_0_23_212
*459 FILLER_0_23_216
*460 FILLER_0_23_218
*461 FILLER_0_23_250
*462 FILLER_0_23_266
*463 FILLER_0_23_274
*464 FILLER_0_23_278
*465 FILLER_0_23_282
*466 FILLER_0_23_314
*467 FILLER_0_23_322
*468 FILLER_0_23_66
*469 FILLER_0_23_72
*470 FILLER_0_23_88
*471 FILLER_0_23_96
*472 FILLER_0_24_104
*473 FILLER_0_24_107
*474 FILLER_0_24_111
*475 FILLER_0_24_118
*476 FILLER_0_24_122
*477 FILLER_0_24_129
*478 FILLER_0_24_137
*479 FILLER_0_24_139
*480 FILLER_0_24_147
*481 FILLER_0_24_177
*482 FILLER_0_24_181
*483 FILLER_0_24_2
*484 FILLER_0_24_232
*485 FILLER_0_24_236
*486 FILLER_0_24_242
*487 FILLER_0_24_244
*488 FILLER_0_24_247
*489 FILLER_0_24_311
*490 FILLER_0_24_317
*491 FILLER_0_24_321
*492 FILLER_0_24_34
*493 FILLER_0_24_37
*494 FILLER_0_24_69
*495 FILLER_0_24_73
*496 FILLER_0_25_104
*497 FILLER_0_25_112
*498 FILLER_0_25_128
*499 FILLER_0_25_142
*500 FILLER_0_25_146
*501 FILLER_0_25_148
*502 FILLER_0_25_171
*503 FILLER_0_25_2
*504 FILLER_0_25_212
*505 FILLER_0_25_216
*506 FILLER_0_25_220
*507 FILLER_0_25_232
*508 FILLER_0_25_264
*509 FILLER_0_25_282
*510 FILLER_0_25_346
*511 FILLER_0_25_348
*512 FILLER_0_25_66
*513 FILLER_0_25_72
*514 FILLER_0_26_101
*515 FILLER_0_26_107
*516 FILLER_0_26_118
*517 FILLER_0_26_134
*518 FILLER_0_26_138
*519 FILLER_0_26_170
*520 FILLER_0_26_174
*521 FILLER_0_26_177
*522 FILLER_0_26_2
*523 FILLER_0_26_209
*524 FILLER_0_26_213
*525 FILLER_0_26_222
*526 FILLER_0_26_238
*527 FILLER_0_26_242
*528 FILLER_0_26_244
*529 FILLER_0_26_247
*530 FILLER_0_26_311
*531 FILLER_0_26_317
*532 FILLER_0_26_34
*533 FILLER_0_26_37
*534 FILLER_0_26_69
*535 FILLER_0_26_85
*536 FILLER_0_26_93
*537 FILLER_0_27_110
*538 FILLER_0_27_114
*539 FILLER_0_27_122
*540 FILLER_0_27_126
*541 FILLER_0_27_128
*542 FILLER_0_27_138
*543 FILLER_0_27_148
*544 FILLER_0_27_164
*545 FILLER_0_27_174
*546 FILLER_0_27_184
*547 FILLER_0_27_199
*548 FILLER_0_27_207
*549 FILLER_0_27_209
*550 FILLER_0_27_241
*551 FILLER_0_27_245
*552 FILLER_0_27_277
*553 FILLER_0_27_279
*554 FILLER_0_27_28
*555 FILLER_0_27_282
*556 FILLER_0_27_346
*557 FILLER_0_27_348
*558 FILLER_0_27_60
*559 FILLER_0_27_68
*560 FILLER_0_27_72
*561 FILLER_0_27_80
*562 FILLER_0_28_101
*563 FILLER_0_28_107
*564 FILLER_0_28_132
*565 FILLER_0_28_148
*566 FILLER_0_28_156
*567 FILLER_0_28_158
*568 FILLER_0_28_166
*569 FILLER_0_28_174
*570 FILLER_0_28_177
*571 FILLER_0_28_2
*572 FILLER_0_28_219
*573 FILLER_0_28_225
*574 FILLER_0_28_229
*575 FILLER_0_28_247
*576 FILLER_0_28_311
*577 FILLER_0_28_317
*578 FILLER_0_28_321
*579 FILLER_0_28_34
*580 FILLER_0_28_37
*581 FILLER_0_29_104
*582 FILLER_0_29_106
*583 FILLER_0_29_136
*584 FILLER_0_29_171
*585 FILLER_0_29_175
*586 FILLER_0_29_207
*587 FILLER_0_29_209
*588 FILLER_0_29_216
*589 FILLER_0_29_28
*590 FILLER_0_29_282
*591 FILLER_0_29_346
*592 FILLER_0_29_348
*593 FILLER_0_29_60
*594 FILLER_0_29_68
*595 FILLER_0_29_72
*596 FILLER_0_2_101
*597 FILLER_0_2_107
*598 FILLER_0_2_123
*599 FILLER_0_2_131
*600 FILLER_0_2_159
*601 FILLER_0_2_177
*602 FILLER_0_2_2
*603 FILLER_0_2_241
*604 FILLER_0_2_247
*605 FILLER_0_2_311
*606 FILLER_0_2_317
*607 FILLER_0_2_34
*608 FILLER_0_2_37
*609 FILLER_0_30_101
*610 FILLER_0_30_107
*611 FILLER_0_30_139
*612 FILLER_0_30_160
*613 FILLER_0_30_168
*614 FILLER_0_30_172
*615 FILLER_0_30_174
*616 FILLER_0_30_177
*617 FILLER_0_30_185
*618 FILLER_0_30_192
*619 FILLER_0_30_198
*620 FILLER_0_30_2
*621 FILLER_0_30_230
*622 FILLER_0_30_238
*623 FILLER_0_30_242
*624 FILLER_0_30_244
*625 FILLER_0_30_247
*626 FILLER_0_30_311
*627 FILLER_0_30_317
*628 FILLER_0_30_34
*629 FILLER_0_30_37
*630 FILLER_0_31_123
*631 FILLER_0_31_127
*632 FILLER_0_31_135
*633 FILLER_0_31_139
*634 FILLER_0_31_142
*635 FILLER_0_31_148
*636 FILLER_0_31_161
*637 FILLER_0_31_170
*638 FILLER_0_31_176
*639 FILLER_0_31_2
*640 FILLER_0_31_209
*641 FILLER_0_31_212
*642 FILLER_0_31_216
*643 FILLER_0_31_282
*644 FILLER_0_31_346
*645 FILLER_0_31_348
*646 FILLER_0_31_66
*647 FILLER_0_31_72
*648 FILLER_0_31_88
*649 FILLER_0_31_92
*650 FILLER_0_32_101
*651 FILLER_0_32_107
*652 FILLER_0_32_123
*653 FILLER_0_32_131
*654 FILLER_0_32_161
*655 FILLER_0_32_165
*656 FILLER_0_32_173
*657 FILLER_0_32_177
*658 FILLER_0_32_2
*659 FILLER_0_32_241
*660 FILLER_0_32_247
*661 FILLER_0_32_311
*662 FILLER_0_32_317
*663 FILLER_0_32_34
*664 FILLER_0_32_37
*665 FILLER_0_33_136
*666 FILLER_0_33_142
*667 FILLER_0_33_150
*668 FILLER_0_33_154
*669 FILLER_0_33_184
*670 FILLER_0_33_188
*671 FILLER_0_33_2
*672 FILLER_0_33_204
*673 FILLER_0_33_208
*674 FILLER_0_33_212
*675 FILLER_0_33_276
*676 FILLER_0_33_282
*677 FILLER_0_33_346
*678 FILLER_0_33_348
*679 FILLER_0_33_66
*680 FILLER_0_33_72
*681 FILLER_0_34_101
*682 FILLER_0_34_107
*683 FILLER_0_34_171
*684 FILLER_0_34_177
*685 FILLER_0_34_2
*686 FILLER_0_34_241
*687 FILLER_0_34_247
*688 FILLER_0_34_311
*689 FILLER_0_34_317
*690 FILLER_0_34_34
*691 FILLER_0_34_37
*692 FILLER_0_35_136
*693 FILLER_0_35_142
*694 FILLER_0_35_2
*695 FILLER_0_35_206
*696 FILLER_0_35_212
*697 FILLER_0_35_276
*698 FILLER_0_35_282
*699 FILLER_0_35_346
*700 FILLER_0_35_348
*701 FILLER_0_35_66
*702 FILLER_0_35_72
*703 FILLER_0_36_101
*704 FILLER_0_36_107
*705 FILLER_0_36_171
*706 FILLER_0_36_177
*707 FILLER_0_36_2
*708 FILLER_0_36_241
*709 FILLER_0_36_247
*710 FILLER_0_36_311
*711 FILLER_0_36_317
*712 FILLER_0_36_34
*713 FILLER_0_36_37
*714 FILLER_0_37_136
*715 FILLER_0_37_142
*716 FILLER_0_37_2
*717 FILLER_0_37_206
*718 FILLER_0_37_212
*719 FILLER_0_37_276
*720 FILLER_0_37_282
*721 FILLER_0_37_346
*722 FILLER_0_37_348
*723 FILLER_0_37_66
*724 FILLER_0_37_72
*725 FILLER_0_38_101
*726 FILLER_0_38_107
*727 FILLER_0_38_171
*728 FILLER_0_38_177
*729 FILLER_0_38_2
*730 FILLER_0_38_241
*731 FILLER_0_38_247
*732 FILLER_0_38_311
*733 FILLER_0_38_317
*734 FILLER_0_38_34
*735 FILLER_0_38_37
*736 FILLER_0_39_136
*737 FILLER_0_39_142
*738 FILLER_0_39_2
*739 FILLER_0_39_206
*740 FILLER_0_39_212
*741 FILLER_0_39_276
*742 FILLER_0_39_282
*743 FILLER_0_39_346
*744 FILLER_0_39_348
*745 FILLER_0_39_66
*746 FILLER_0_39_72
*747 FILLER_0_3_136
*748 FILLER_0_3_142
*749 FILLER_0_3_2
*750 FILLER_0_3_206
*751 FILLER_0_3_212
*752 FILLER_0_3_276
*753 FILLER_0_3_282
*754 FILLER_0_3_346
*755 FILLER_0_3_348
*756 FILLER_0_3_66
*757 FILLER_0_3_72
*758 FILLER_0_40_101
*759 FILLER_0_40_107
*760 FILLER_0_40_171
*761 FILLER_0_40_177
*762 FILLER_0_40_2
*763 FILLER_0_40_241
*764 FILLER_0_40_247
*765 FILLER_0_40_311
*766 FILLER_0_40_317
*767 FILLER_0_40_34
*768 FILLER_0_40_37
*769 FILLER_0_41_136
*770 FILLER_0_41_142
*771 FILLER_0_41_2
*772 FILLER_0_41_206
*773 FILLER_0_41_212
*774 FILLER_0_41_276
*775 FILLER_0_41_282
*776 FILLER_0_41_346
*777 FILLER_0_41_348
*778 FILLER_0_41_66
*779 FILLER_0_41_72
*780 FILLER_0_42_101
*781 FILLER_0_42_107
*782 FILLER_0_42_123
*783 FILLER_0_42_131
*784 FILLER_0_42_159
*785 FILLER_0_42_177
*786 FILLER_0_42_2
*787 FILLER_0_42_241
*788 FILLER_0_42_247
*789 FILLER_0_42_311
*790 FILLER_0_42_317
*791 FILLER_0_42_34
*792 FILLER_0_42_37
*793 FILLER_0_43_136
*794 FILLER_0_43_142
*795 FILLER_0_43_195
*796 FILLER_0_43_2
*797 FILLER_0_43_203
*798 FILLER_0_43_207
*799 FILLER_0_43_209
*800 FILLER_0_43_212
*801 FILLER_0_43_216
*802 FILLER_0_43_243
*803 FILLER_0_43_275
*804 FILLER_0_43_279
*805 FILLER_0_43_282
*806 FILLER_0_43_346
*807 FILLER_0_43_348
*808 FILLER_0_43_66
*809 FILLER_0_43_72
*810 FILLER_0_44_104
*811 FILLER_0_44_138
*812 FILLER_0_44_142
*813 FILLER_0_44_172
*814 FILLER_0_44_176
*815 FILLER_0_44_2
*816 FILLER_0_44_236
*817 FILLER_0_44_244
*818 FILLER_0_44_260
*819 FILLER_0_44_268
*820 FILLER_0_44_274
*821 FILLER_0_44_308
*822 FILLER_0_44_342
*823 FILLER_0_44_346
*824 FILLER_0_44_348
*825 FILLER_0_44_36
*826 FILLER_0_44_70
*827 FILLER_0_4_101
*828 FILLER_0_4_107
*829 FILLER_0_4_171
*830 FILLER_0_4_177
*831 FILLER_0_4_2
*832 FILLER_0_4_241
*833 FILLER_0_4_247
*834 FILLER_0_4_311
*835 FILLER_0_4_317
*836 FILLER_0_4_34
*837 FILLER_0_4_37
*838 FILLER_0_5_136
*839 FILLER_0_5_142
*840 FILLER_0_5_2
*841 FILLER_0_5_206
*842 FILLER_0_5_212
*843 FILLER_0_5_276
*844 FILLER_0_5_282
*845 FILLER_0_5_346
*846 FILLER_0_5_348
*847 FILLER_0_5_66
*848 FILLER_0_5_72
*849 FILLER_0_6_101
*850 FILLER_0_6_107
*851 FILLER_0_6_171
*852 FILLER_0_6_177
*853 FILLER_0_6_2
*854 FILLER_0_6_241
*855 FILLER_0_6_247
*856 FILLER_0_6_311
*857 FILLER_0_6_317
*858 FILLER_0_6_34
*859 FILLER_0_6_37
*860 FILLER_0_7_136
*861 FILLER_0_7_142
*862 FILLER_0_7_2
*863 FILLER_0_7_206
*864 FILLER_0_7_212
*865 FILLER_0_7_276
*866 FILLER_0_7_282
*867 FILLER_0_7_346
*868 FILLER_0_7_348
*869 FILLER_0_7_66
*870 FILLER_0_7_72
*871 FILLER_0_8_101
*872 FILLER_0_8_107
*873 FILLER_0_8_171
*874 FILLER_0_8_177
*875 FILLER_0_8_2
*876 FILLER_0_8_241
*877 FILLER_0_8_247
*878 FILLER_0_8_311
*879 FILLER_0_8_317
*880 FILLER_0_8_34
*881 FILLER_0_8_37
*882 FILLER_0_9_136
*883 FILLER_0_9_142
*884 FILLER_0_9_2
*885 FILLER_0_9_206
*886 FILLER_0_9_212
*887 FILLER_0_9_276
*888 FILLER_0_9_282
*889 FILLER_0_9_346
*890 FILLER_0_9_348
*891 FILLER_0_9_66
*892 FILLER_0_9_72
*893 PHY_EDGE_ROW_0_Left_45
*894 PHY_EDGE_ROW_0_Right_0
*895 PHY_EDGE_ROW_10_Left_55
*896 PHY_EDGE_ROW_10_Right_10
*897 PHY_EDGE_ROW_11_Left_56
*898 PHY_EDGE_ROW_11_Right_11
*899 PHY_EDGE_ROW_12_Left_57
*900 PHY_EDGE_ROW_12_Right_12
*901 PHY_EDGE_ROW_13_Left_58
*902 PHY_EDGE_ROW_13_Right_13
*903 PHY_EDGE_ROW_14_Left_59
*904 PHY_EDGE_ROW_14_Right_14
*905 PHY_EDGE_ROW_15_Left_60
*906 PHY_EDGE_ROW_15_Right_15
*907 PHY_EDGE_ROW_16_Left_61
*908 PHY_EDGE_ROW_16_Right_16
*909 PHY_EDGE_ROW_17_Left_62
*910 PHY_EDGE_ROW_17_Right_17
*911 PHY_EDGE_ROW_18_Left_63
*912 PHY_EDGE_ROW_18_Right_18
*913 PHY_EDGE_ROW_19_Left_64
*914 PHY_EDGE_ROW_19_Right_19
*915 PHY_EDGE_ROW_1_Left_46
*916 PHY_EDGE_ROW_1_Right_1
*917 PHY_EDGE_ROW_20_Left_65
*918 PHY_EDGE_ROW_20_Right_20
*919 PHY_EDGE_ROW_21_Left_66
*920 PHY_EDGE_ROW_21_Right_21
*921 PHY_EDGE_ROW_22_Left_67
*922 PHY_EDGE_ROW_22_Right_22
*923 PHY_EDGE_ROW_23_Left_68
*924 PHY_EDGE_ROW_23_Right_23
*925 PHY_EDGE_ROW_24_Left_69
*926 PHY_EDGE_ROW_24_Right_24
*927 PHY_EDGE_ROW_25_Left_70
*928 PHY_EDGE_ROW_25_Right_25
*929 PHY_EDGE_ROW_26_Left_71
*930 PHY_EDGE_ROW_26_Right_26
*931 PHY_EDGE_ROW_27_Left_72
*932 PHY_EDGE_ROW_27_Right_27
*933 PHY_EDGE_ROW_28_Left_73
*934 PHY_EDGE_ROW_28_Right_28
*935 PHY_EDGE_ROW_29_Left_74
*936 PHY_EDGE_ROW_29_Right_29
*937 PHY_EDGE_ROW_2_Left_47
*938 PHY_EDGE_ROW_2_Right_2
*939 PHY_EDGE_ROW_30_Left_75
*940 PHY_EDGE_ROW_30_Right_30
*941 PHY_EDGE_ROW_31_Left_76
*942 PHY_EDGE_ROW_31_Right_31
*943 PHY_EDGE_ROW_32_Left_77
*944 PHY_EDGE_ROW_32_Right_32
*945 PHY_EDGE_ROW_33_Left_78
*946 PHY_EDGE_ROW_33_Right_33
*947 PHY_EDGE_ROW_34_Left_79
*948 PHY_EDGE_ROW_34_Right_34
*949 PHY_EDGE_ROW_35_Left_80
*950 PHY_EDGE_ROW_35_Right_35
*951 PHY_EDGE_ROW_36_Left_81
*952 PHY_EDGE_ROW_36_Right_36
*953 PHY_EDGE_ROW_37_Left_82
*954 PHY_EDGE_ROW_37_Right_37
*955 PHY_EDGE_ROW_38_Left_83
*956 PHY_EDGE_ROW_38_Right_38
*957 PHY_EDGE_ROW_39_Left_84
*958 PHY_EDGE_ROW_39_Right_39
*959 PHY_EDGE_ROW_3_Left_48
*960 PHY_EDGE_ROW_3_Right_3
*961 PHY_EDGE_ROW_40_Left_85
*962 PHY_EDGE_ROW_40_Right_40
*963 PHY_EDGE_ROW_41_Left_86
*964 PHY_EDGE_ROW_41_Right_41
*965 PHY_EDGE_ROW_42_Left_87
*966 PHY_EDGE_ROW_42_Right_42
*967 PHY_EDGE_ROW_43_Left_88
*968 PHY_EDGE_ROW_43_Right_43
*969 PHY_EDGE_ROW_44_Left_89
*970 PHY_EDGE_ROW_44_Right_44
*971 PHY_EDGE_ROW_4_Left_49
*972 PHY_EDGE_ROW_4_Right_4
*973 PHY_EDGE_ROW_5_Left_50
*974 PHY_EDGE_ROW_5_Right_5
*975 PHY_EDGE_ROW_6_Left_51
*976 PHY_EDGE_ROW_6_Right_6
*977 PHY_EDGE_ROW_7_Left_52
*978 PHY_EDGE_ROW_7_Right_7
*979 PHY_EDGE_ROW_8_Left_53
*980 PHY_EDGE_ROW_8_Right_8
*981 PHY_EDGE_ROW_9_Left_54
*982 PHY_EDGE_ROW_9_Right_9
*983 TAP_TAPCELL_ROW_0_90
*984 TAP_TAPCELL_ROW_0_91
*985 TAP_TAPCELL_ROW_0_92
*986 TAP_TAPCELL_ROW_0_93
*987 TAP_TAPCELL_ROW_0_94
*988 TAP_TAPCELL_ROW_0_95
*989 TAP_TAPCELL_ROW_0_96
*990 TAP_TAPCELL_ROW_0_97
*991 TAP_TAPCELL_ROW_0_98
*992 TAP_TAPCELL_ROW_0_99
*993 TAP_TAPCELL_ROW_10_140
*994 TAP_TAPCELL_ROW_10_141
*995 TAP_TAPCELL_ROW_10_142
*996 TAP_TAPCELL_ROW_10_143
*997 TAP_TAPCELL_ROW_10_144
*998 TAP_TAPCELL_ROW_11_145
*999 TAP_TAPCELL_ROW_11_146
*1000 TAP_TAPCELL_ROW_11_147
*1001 TAP_TAPCELL_ROW_11_148
*1002 TAP_TAPCELL_ROW_12_149
*1003 TAP_TAPCELL_ROW_12_150
*1004 TAP_TAPCELL_ROW_12_151
*1005 TAP_TAPCELL_ROW_12_152
*1006 TAP_TAPCELL_ROW_12_153
*1007 TAP_TAPCELL_ROW_13_154
*1008 TAP_TAPCELL_ROW_13_155
*1009 TAP_TAPCELL_ROW_13_156
*1010 TAP_TAPCELL_ROW_13_157
*1011 TAP_TAPCELL_ROW_14_158
*1012 TAP_TAPCELL_ROW_14_159
*1013 TAP_TAPCELL_ROW_14_160
*1014 TAP_TAPCELL_ROW_14_161
*1015 TAP_TAPCELL_ROW_14_162
*1016 TAP_TAPCELL_ROW_15_163
*1017 TAP_TAPCELL_ROW_15_164
*1018 TAP_TAPCELL_ROW_15_165
*1019 TAP_TAPCELL_ROW_15_166
*1020 TAP_TAPCELL_ROW_16_167
*1021 TAP_TAPCELL_ROW_16_168
*1022 TAP_TAPCELL_ROW_16_169
*1023 TAP_TAPCELL_ROW_16_170
*1024 TAP_TAPCELL_ROW_16_171
*1025 TAP_TAPCELL_ROW_17_172
*1026 TAP_TAPCELL_ROW_17_173
*1027 TAP_TAPCELL_ROW_17_174
*1028 TAP_TAPCELL_ROW_17_175
*1029 TAP_TAPCELL_ROW_18_176
*1030 TAP_TAPCELL_ROW_18_177
*1031 TAP_TAPCELL_ROW_18_178
*1032 TAP_TAPCELL_ROW_18_179
*1033 TAP_TAPCELL_ROW_18_180
*1034 TAP_TAPCELL_ROW_19_181
*1035 TAP_TAPCELL_ROW_19_182
*1036 TAP_TAPCELL_ROW_19_183
*1037 TAP_TAPCELL_ROW_19_184
*1038 TAP_TAPCELL_ROW_1_100
*1039 TAP_TAPCELL_ROW_1_101
*1040 TAP_TAPCELL_ROW_1_102
*1041 TAP_TAPCELL_ROW_1_103
*1042 TAP_TAPCELL_ROW_20_185
*1043 TAP_TAPCELL_ROW_20_186
*1044 TAP_TAPCELL_ROW_20_187
*1045 TAP_TAPCELL_ROW_20_188
*1046 TAP_TAPCELL_ROW_20_189
*1047 TAP_TAPCELL_ROW_21_190
*1048 TAP_TAPCELL_ROW_21_191
*1049 TAP_TAPCELL_ROW_21_192
*1050 TAP_TAPCELL_ROW_21_193
*1051 TAP_TAPCELL_ROW_22_194
*1052 TAP_TAPCELL_ROW_22_195
*1053 TAP_TAPCELL_ROW_22_196
*1054 TAP_TAPCELL_ROW_22_197
*1055 TAP_TAPCELL_ROW_22_198
*1056 TAP_TAPCELL_ROW_23_199
*1057 TAP_TAPCELL_ROW_23_200
*1058 TAP_TAPCELL_ROW_23_201
*1059 TAP_TAPCELL_ROW_23_202
*1060 TAP_TAPCELL_ROW_24_203
*1061 TAP_TAPCELL_ROW_24_204
*1062 TAP_TAPCELL_ROW_24_205
*1063 TAP_TAPCELL_ROW_24_206
*1064 TAP_TAPCELL_ROW_24_207
*1065 TAP_TAPCELL_ROW_25_208
*1066 TAP_TAPCELL_ROW_25_209
*1067 TAP_TAPCELL_ROW_25_210
*1068 TAP_TAPCELL_ROW_25_211
*1069 TAP_TAPCELL_ROW_26_212
*1070 TAP_TAPCELL_ROW_26_213
*1071 TAP_TAPCELL_ROW_26_214
*1072 TAP_TAPCELL_ROW_26_215
*1073 TAP_TAPCELL_ROW_26_216
*1074 TAP_TAPCELL_ROW_27_217
*1075 TAP_TAPCELL_ROW_27_218
*1076 TAP_TAPCELL_ROW_27_219
*1077 TAP_TAPCELL_ROW_27_220
*1078 TAP_TAPCELL_ROW_28_221
*1079 TAP_TAPCELL_ROW_28_222
*1080 TAP_TAPCELL_ROW_28_223
*1081 TAP_TAPCELL_ROW_28_224
*1082 TAP_TAPCELL_ROW_28_225
*1083 TAP_TAPCELL_ROW_29_226
*1084 TAP_TAPCELL_ROW_29_227
*1085 TAP_TAPCELL_ROW_29_228
*1086 TAP_TAPCELL_ROW_29_229
*1087 TAP_TAPCELL_ROW_2_104
*1088 TAP_TAPCELL_ROW_2_105
*1089 TAP_TAPCELL_ROW_2_106
*1090 TAP_TAPCELL_ROW_2_107
*1091 TAP_TAPCELL_ROW_2_108
*1092 TAP_TAPCELL_ROW_30_230
*1093 TAP_TAPCELL_ROW_30_231
*1094 TAP_TAPCELL_ROW_30_232
*1095 TAP_TAPCELL_ROW_30_233
*1096 TAP_TAPCELL_ROW_30_234
*1097 TAP_TAPCELL_ROW_31_235
*1098 TAP_TAPCELL_ROW_31_236
*1099 TAP_TAPCELL_ROW_31_237
*1100 TAP_TAPCELL_ROW_31_238
*1101 TAP_TAPCELL_ROW_32_239
*1102 TAP_TAPCELL_ROW_32_240
*1103 TAP_TAPCELL_ROW_32_241
*1104 TAP_TAPCELL_ROW_32_242
*1105 TAP_TAPCELL_ROW_32_243
*1106 TAP_TAPCELL_ROW_33_244
*1107 TAP_TAPCELL_ROW_33_245
*1108 TAP_TAPCELL_ROW_33_246
*1109 TAP_TAPCELL_ROW_33_247
*1110 TAP_TAPCELL_ROW_34_248
*1111 TAP_TAPCELL_ROW_34_249
*1112 TAP_TAPCELL_ROW_34_250
*1113 TAP_TAPCELL_ROW_34_251
*1114 TAP_TAPCELL_ROW_34_252
*1115 TAP_TAPCELL_ROW_35_253
*1116 TAP_TAPCELL_ROW_35_254
*1117 TAP_TAPCELL_ROW_35_255
*1118 TAP_TAPCELL_ROW_35_256
*1119 TAP_TAPCELL_ROW_36_257
*1120 TAP_TAPCELL_ROW_36_258
*1121 TAP_TAPCELL_ROW_36_259
*1122 TAP_TAPCELL_ROW_36_260
*1123 TAP_TAPCELL_ROW_36_261
*1124 TAP_TAPCELL_ROW_37_262
*1125 TAP_TAPCELL_ROW_37_263
*1126 TAP_TAPCELL_ROW_37_264
*1127 TAP_TAPCELL_ROW_37_265
*1128 TAP_TAPCELL_ROW_38_266
*1129 TAP_TAPCELL_ROW_38_267
*1130 TAP_TAPCELL_ROW_38_268
*1131 TAP_TAPCELL_ROW_38_269
*1132 TAP_TAPCELL_ROW_38_270
*1133 TAP_TAPCELL_ROW_39_271
*1134 TAP_TAPCELL_ROW_39_272
*1135 TAP_TAPCELL_ROW_39_273
*1136 TAP_TAPCELL_ROW_39_274
*1137 TAP_TAPCELL_ROW_3_109
*1138 TAP_TAPCELL_ROW_3_110
*1139 TAP_TAPCELL_ROW_3_111
*1140 TAP_TAPCELL_ROW_3_112
*1141 TAP_TAPCELL_ROW_40_275
*1142 TAP_TAPCELL_ROW_40_276
*1143 TAP_TAPCELL_ROW_40_277
*1144 TAP_TAPCELL_ROW_40_278
*1145 TAP_TAPCELL_ROW_40_279
*1146 TAP_TAPCELL_ROW_41_280
*1147 TAP_TAPCELL_ROW_41_281
*1148 TAP_TAPCELL_ROW_41_282
*1149 TAP_TAPCELL_ROW_41_283
*1150 TAP_TAPCELL_ROW_42_284
*1151 TAP_TAPCELL_ROW_42_285
*1152 TAP_TAPCELL_ROW_42_286
*1153 TAP_TAPCELL_ROW_42_287
*1154 TAP_TAPCELL_ROW_42_288
*1155 TAP_TAPCELL_ROW_43_289
*1156 TAP_TAPCELL_ROW_43_290
*1157 TAP_TAPCELL_ROW_43_291
*1158 TAP_TAPCELL_ROW_43_292
*1159 TAP_TAPCELL_ROW_44_293
*1160 TAP_TAPCELL_ROW_44_294
*1161 TAP_TAPCELL_ROW_44_295
*1162 TAP_TAPCELL_ROW_44_296
*1163 TAP_TAPCELL_ROW_44_297
*1164 TAP_TAPCELL_ROW_44_298
*1165 TAP_TAPCELL_ROW_44_299
*1166 TAP_TAPCELL_ROW_44_300
*1167 TAP_TAPCELL_ROW_44_301
*1168 TAP_TAPCELL_ROW_44_302
*1169 TAP_TAPCELL_ROW_4_113
*1170 TAP_TAPCELL_ROW_4_114
*1171 TAP_TAPCELL_ROW_4_115
*1172 TAP_TAPCELL_ROW_4_116
*1173 TAP_TAPCELL_ROW_4_117
*1174 TAP_TAPCELL_ROW_5_118
*1175 TAP_TAPCELL_ROW_5_119
*1176 TAP_TAPCELL_ROW_5_120
*1177 TAP_TAPCELL_ROW_5_121
*1178 TAP_TAPCELL_ROW_6_122
*1179 TAP_TAPCELL_ROW_6_123
*1180 TAP_TAPCELL_ROW_6_124
*1181 TAP_TAPCELL_ROW_6_125
*1182 TAP_TAPCELL_ROW_6_126
*1183 TAP_TAPCELL_ROW_7_127
*1184 TAP_TAPCELL_ROW_7_128
*1185 TAP_TAPCELL_ROW_7_129
*1186 TAP_TAPCELL_ROW_7_130
*1187 TAP_TAPCELL_ROW_8_131
*1188 TAP_TAPCELL_ROW_8_132
*1189 TAP_TAPCELL_ROW_8_133
*1190 TAP_TAPCELL_ROW_8_134
*1191 TAP_TAPCELL_ROW_8_135
*1192 TAP_TAPCELL_ROW_9_136
*1193 TAP_TAPCELL_ROW_9_137
*1194 TAP_TAPCELL_ROW_9_138
*1195 TAP_TAPCELL_ROW_9_139
*1196 _102_
*1197 _103_
*1198 _104_
*1199 _105_
*1200 _106_
*1201 _107_
*1202 _108_
*1203 _109_
*1204 _110_
*1205 _111_
*1206 _112_
*1207 _113_
*1208 _114_
*1209 _115_
*1210 _116_
*1211 _117_
*1212 _118_
*1213 _119_
*1214 _120_
*1215 _121_
*1216 _122_
*1217 _123_
*1218 _124_
*1219 _125_
*1220 _126_
*1221 _127_
*1222 _128_
*1223 _129_
*1224 _130_
*1225 _131_
*1226 _132_
*1227 _133_
*1228 _134_
*1229 _135_
*1230 _136_
*1231 _137_
*1232 _138_
*1233 _139_
*1234 _140_
*1235 _141_
*1236 _142_
*1237 _143_
*1238 _144_
*1239 _145_
*1240 _146_
*1241 _147_
*1242 _148_
*1243 _149_
*1244 _150_
*1245 _151_
*1246 _152_
*1247 _153_
*1248 _154_
*1249 _155_
*1250 _156_
*1251 _157_
*1252 _158_
*1253 _159_
*1254 _160_
*1255 _161_
*1256 _162_
*1257 _163_
*1258 _164_
*1259 _165_
*1260 _166_
*1261 _167_
*1262 _168_
*1263 _169_
*1264 _170_
*1265 _171_
*1266 _172_
*1267 _173_
*1268 _174_
*1269 _175_
*1270 _176_
*1271 _177_
*1272 _178_
*1273 _179_
*1274 _180_
*1275 _181_
*1276 _182_
*1277 _183_
*1278 _184_
*1279 _185_
*1280 _186_
*1281 _187_
*1282 _188_
*1283 _189_
*1284 _190_
*1285 _191_
*1286 _192_
*1287 _193_
*1288 _194_
*1289 _195_
*1290 _196_
*1291 _197_
*1292 _198_
*1293 _199_
*1294 _200_
*1295 _201_
*1296 _202_
*1297 _203_
*1298 _204_
*1299 _205_
*1300 _206_
*1301 _207_
*1302 _208_
*1303 _209_
*1304 _210_
*1305 _211_
*1306 _212_
*1307 _213_
*1308 _214_
*1309 _215_
*1310 _216_
*1311 _217_
*1312 _218_
*1313 _219_
*1314 _220_
*1315 _221_
*1316 _222_
*1317 _223_
*1318 _224_
*1319 _225_
*1320 _226_
*1321 _227_
*1322 _231_
*1323 _232_
*1324 _233_
*1325 clkbuf_0_clk
*1326 clkbuf_1_0__f_clk
*1327 clkbuf_1_1__f_clk
*1328 ita57_24
*1329 ita57_25
*1330 ita57_26
*1331 output1
*1332 output10
*1333 output11
*1334 output12
*1335 output13
*1336 output14
*1337 output15
*1338 output16
*1339 output17
*1340 output18
*1341 output19
*1342 output2
*1343 output20
*1344 output21
*1345 output22
*1346 output23
*1347 output3
*1348 output4
*1349 output5
*1350 output6
*1351 output7
*1352 output8
*1353 output9

*PORTS
clk I
segm[0] O
segm[10] O
segm[11] O
segm[12] O
segm[13] O
segm[1] O
segm[2] O
segm[3] O
segm[4] O
segm[5] O
segm[6] O
segm[7] O
segm[8] O
segm[9] O
sel[0] O
sel[10] O
sel[11] O
sel[1] O
sel[2] O
sel[3] O
sel[4] O
sel[5] O
sel[6] O
sel[7] O
sel[8] O
sel[9] O

*D_NET *1 0.0131041
*CONN
*P clk I
*I *186:I I *D gf180mcu_fd_sc_mcu7t5v0__antenna
*I *1325:I I *D gf180mcu_fd_sc_mcu7t5v0__clkbuf_16
*CAP
1 clk 0.00504071
2 *186:I 0
3 *1325:I 0.000302314
4 *1:15 0.00534303
5 *1325:I *1249:A2 3.53802e-05
6 *1325:I *1265:A2 0
7 *1325:I *94:16 0.000338443
8 *1325:I *101:20 9.90293e-05
9 *1325:I *107:42 2.39814e-05
10 *1325:I *133:217 0.000346478
11 *1:15 *1200:I 4.43821e-05
12 *1:15 *1285:B1 9.52844e-05
13 *1:15 *1300:D 0
14 *1:15 *107:42 0.00015651
15 *1:15 *109:16 0.0007608
16 *1:15 *123:25 0.00051774
*RES
1 clk *1:15 49.905 
2 *1:15 *1325:I 16.56 
3 *1:15 *186:I 4.5 
*END

*D_NET *2 0.00260717
*CONN
*P segm[0] O
*I *1328:ZN O *D gf180mcu_fd_sc_mcu7t5v0__tiel
*CAP
1 segm[0] 0.00123921
2 *1328:ZN 0.00123921
3 segm[0] segm[5] 0.00012874
*RES
1 *1328:ZN segm[0] 21.9737 
*END

*D_NET *3 0.000491162
*CONN
*P segm[10] O
*I *1331:Z O *D gf180mcu_fd_sc_mcu7t5v0__buf_8
*CAP
1 segm[10] 0.000210841
2 *1331:Z 0.000210841
3 segm[10] segm[13] 6.94814e-05
*RES
1 *1331:Z segm[10] 11.025 
*END

*D_NET *4 0.00134191
*CONN
*P segm[11] O
*I *1342:Z O *D gf180mcu_fd_sc_mcu7t5v0__buf_8
*CAP
1 segm[11] 0.000516119
2 *1342:Z 0.000516119
3 segm[11] sel[1] 0.00013875
4 segm[11] sel[3] 0.000170924
*RES
1 *1342:Z segm[11] 9.405 
*END

*D_NET *5 0.000805518
*CONN
*P segm[12] O
*I *1347:Z O *D gf180mcu_fd_sc_mcu7t5v0__buf_8
*CAP
1 segm[12] 0.000402759
2 *1347:Z 0.000402759
*RES
1 *1347:Z segm[12] 11.835 
*END

*D_NET *6 0.000602179
*CONN
*P segm[13] O
*I *1348:Z O *D gf180mcu_fd_sc_mcu7t5v0__buf_8
*CAP
1 segm[13] 0.000233037
2 *1348:Z 0.000233037
3 segm[13] sel[9] 6.66239e-05
4 segm[10] segm[13] 6.94814e-05
*RES
1 *1348:Z segm[13] 11.295 
*END

*D_NET *7 0.00187205
*CONN
*P segm[1] O
*I *1349:Z O *D gf180mcu_fd_sc_mcu7t5v0__buf_8
*CAP
1 segm[1] 0.000810184
2 *1349:Z 0.000810184
3 segm[1] sel[5] 0.00021188
4 segm[1] *1349:I 3.97987e-05