*SPEF "ieee 1481-1999"
*DESIGN "ita59"
*DATE "11:11:11 Fri 11 11, 1111"
*VENDOR "OpenRCX"
*PROGRAM "Parallel Extraction"
*VERSION "1.0"
*DESIGN_FLOW "NAME_SCOPE LOCAL" "PIN_CAP NONE"
*DIVIDER /
*DELIMITER :
*BUS_DELIMITER []
*T_UNIT 1 NS
*C_UNIT 1 PF
*R_UNIT 1 OHM
*L_UNIT 1 HENRY

*NAME_MAP
*1 clk
*2 net25
*3 segm[10]
*4 segm[11]
*5 segm[12]
*6 segm[13]
*7 segm[1]
*8 segm[2]
*9 segm[3]
*10 segm[4]
*11 net26
*12 segm[6]
*13 segm[7]
*14 segm[8]
*15 segm[9]
*16 sel[0]
*17 sel[10]
*18 sel[11]
*19 sel[1]
*20 sel[2]
*21 sel[3]
*22 sel[4]
*23 sel[5]
*24 sel[6]
*25 sel[7]
*26 sel[8]
*27 sel[9]
*30 _000_
*31 _001_
*32 _002_
*33 _003_
*34 _004_
*35 _005_
*36 _006_
*37 _007_
*38 _008_
*39 _009_
*40 _010_
*41 _011_
*42 _012_
*43 _013_
*44 _014_
*45 _015_
*46 _016_
*47 _017_
*48 _018_
*49 _019_
*50 _020_
*51 _021_
*52 _022_
*53 _023_
*54 _024_
*55 _025_
*56 _026_
*57 _027_
*58 _028_
*59 _029_
*60 _030_
*61 _031_
*62 _032_
*63 _033_
*64 _034_
*65 _035_
*66 _036_
*67 _037_
*68 _038_
*69 _039_
*70 _040_
*71 _041_
*72 _042_
*73 _043_
*74 _044_
*75 _045_
*76 _046_
*77 _047_
*78 _048_
*79 _049_
*80 _050_
*81 _051_
*82 _052_
*83 _053_
*84 _054_
*85 _055_
*86 _056_
*87 _057_
*88 _058_
*89 _059_
*90 _060_
*91 _061_
*92 _062_
*93 _063_
*94 _064_
*95 _065_
*96 _066_
*97 _067_
*98 _068_
*99 _069_
*100 _070_
*101 _071_
*102 _072_
*103 _073_
*104 _074_
*105 _075_
*106 _076_
*107 _077_
*108 _078_
*109 _079_
*110 _080_
*111 _081_
*112 _082_
*113 _083_
*114 _084_
*115 _085_
*116 _086_
*117 _087_
*118 _088_
*119 _089_
*120 _090_
*121 _091_
*122 _092_
*123 _093_
*124 _094_
*125 _095_
*126 _096_
*127 _097_
*128 _098_
*129 _099_
*130 _100_
*131 _101_
*132 _102_
*133 _103_
*134 _104_
*135 _105_
*136 _106_
*137 clknet_0_clk
*138 clknet_1_0__leaf_clk
*139 clknet_1_1__leaf_clk
*140 dut59\.count\[0\]
*141 dut59\.count\[1\]
*142 dut59\.count\[2\]
*143 dut59\.count\[3\]
*144 net1
*145 net10
*146 net11
*147 net12
*148 net13
*149 net14
*150 net15
*151 net16
*152 net17
*153 net18
*154 net19
*155 net2
*156 net20
*157 net21
*158 net22
*159 net23
*160 net24
*161 net3
*162 net4
*163 net5
*164 net6
*165 net7
*166 net8
*167 net9
*168 ANTENNA__167__B
*169 ANTENNA__185__A3
*170 ANTENNA__188__A2
*171 ANTENNA__207__B
*172 ANTENNA__214__CLK
*173 ANTENNA__215__CLK
*174 ANTENNA__216__CLK
*175 ANTENNA__217__CLK
*176 ANTENNA__218__CLK
*177 ANTENNA__219__CLK
*178 ANTENNA__220__CLK
*179 ANTENNA__221__CLK
*180 ANTENNA__222__CLK
*181 ANTENNA__223__CLK
*182 ANTENNA__224__CLK
*183 ANTENNA__225__CLK
*184 ANTENNA__226__CLK
*185 ANTENNA__227__CLK
*186 ANTENNA__228__CLK
*187 ANTENNA__229__CLK
*188 ANTENNA__230__CLK
*189 ANTENNA__231__CLK
*190 ANTENNA__232__CLK
*191 ANTENNA__233__CLK
*192 ANTENNA__234__CLK
*193 ANTENNA__235__CLK
*194 ANTENNA__236__CLK
*195 ANTENNA__237__CLK
*196 ANTENNA__238__CLK
*197 ANTENNA__239__CLK
*198 ANTENNA_clkbuf_0_clk_I
*199 FILLER_0_0_104
*200 FILLER_0_0_164
*201 FILLER_0_0_168
*202 FILLER_0_0_198
*203 FILLER_0_0_2
*204 FILLER_0_0_202
*205 FILLER_0_0_232
*206 FILLER_0_0_236
*207 FILLER_0_0_266
*208 FILLER_0_0_270
*209 FILLER_0_0_274
*210 FILLER_0_0_308
*211 FILLER_0_0_342
*212 FILLER_0_0_346
*213 FILLER_0_0_348
*214 FILLER_0_0_36
*215 FILLER_0_0_70
*216 FILLER_0_10_101
*217 FILLER_0_10_107
*218 FILLER_0_10_171
*219 FILLER_0_10_177
*220 FILLER_0_10_2
*221 FILLER_0_10_241
*222 FILLER_0_10_247
*223 FILLER_0_10_311
*224 FILLER_0_10_317
*225 FILLER_0_10_34
*226 FILLER_0_10_37
*227 FILLER_0_11_136
*228 FILLER_0_11_142
*229 FILLER_0_11_174
*230 FILLER_0_11_177
*231 FILLER_0_11_2
*232 FILLER_0_11_209
*233 FILLER_0_11_212
*234 FILLER_0_11_276
*235 FILLER_0_11_282
*236 FILLER_0_11_346
*237 FILLER_0_11_348
*238 FILLER_0_11_66
*239 FILLER_0_11_72
*240 FILLER_0_12_101
*241 FILLER_0_12_107
*242 FILLER_0_12_123
*243 FILLER_0_12_131
*244 FILLER_0_12_135
*245 FILLER_0_12_139
*246 FILLER_0_12_143
*247 FILLER_0_12_174
*248 FILLER_0_12_2
*249 FILLER_0_12_206
*250 FILLER_0_12_238
*251 FILLER_0_12_242
*252 FILLER_0_12_244
*253 FILLER_0_12_247
*254 FILLER_0_12_311
*255 FILLER_0_12_317
*256 FILLER_0_12_34
*257 FILLER_0_12_37
*258 FILLER_0_13_104
*259 FILLER_0_13_137
*260 FILLER_0_13_139
*261 FILLER_0_13_153
*262 FILLER_0_13_157
*263 FILLER_0_13_159
*264 FILLER_0_13_173
*265 FILLER_0_13_177
*266 FILLER_0_13_2
*267 FILLER_0_13_218
*268 FILLER_0_13_250
*269 FILLER_0_13_266
*270 FILLER_0_13_274
*271 FILLER_0_13_278
*272 FILLER_0_13_282
*273 FILLER_0_13_346
*274 FILLER_0_13_348
*275 FILLER_0_13_66
*276 FILLER_0_13_72
*277 FILLER_0_14_101
*278 FILLER_0_14_107
*279 FILLER_0_14_123
*280 FILLER_0_14_125
*281 FILLER_0_14_160
*282 FILLER_0_14_164
*283 FILLER_0_14_172
*284 FILLER_0_14_174
*285 FILLER_0_14_177
*286 FILLER_0_14_185
*287 FILLER_0_14_187
*288 FILLER_0_14_2
*289 FILLER_0_14_202
*290 FILLER_0_14_204
*291 FILLER_0_14_236
*292 FILLER_0_14_244
*293 FILLER_0_14_247
*294 FILLER_0_14_311
*295 FILLER_0_14_317
*296 FILLER_0_14_34
*297 FILLER_0_14_37
*298 FILLER_0_15_116
*299 FILLER_0_15_120
*300 FILLER_0_15_136
*301 FILLER_0_15_142
*302 FILLER_0_15_146
*303 FILLER_0_15_152
*304 FILLER_0_15_168
*305 FILLER_0_15_172
*306 FILLER_0_15_192
*307 FILLER_0_15_2
*308 FILLER_0_15_208
*309 FILLER_0_15_226
*310 FILLER_0_15_258
*311 FILLER_0_15_274
*312 FILLER_0_15_278
*313 FILLER_0_15_282
*314 FILLER_0_15_346
*315 FILLER_0_15_348
*316 FILLER_0_15_66
*317 FILLER_0_15_72
*318 FILLER_0_15_80
*319 FILLER_0_15_84
*320 FILLER_0_15_86
*321 FILLER_0_16_101
*322 FILLER_0_16_107
*323 FILLER_0_16_126
*324 FILLER_0_16_134
*325 FILLER_0_16_136
*326 FILLER_0_16_143
*327 FILLER_0_16_151
*328 FILLER_0_16_164
*329 FILLER_0_16_168
*330 FILLER_0_16_185
*331 FILLER_0_16_187
*332 FILLER_0_16_194
*333 FILLER_0_16_198
*334 FILLER_0_16_205
*335 FILLER_0_16_209
*336 FILLER_0_16_211
*337 FILLER_0_16_220
*338 FILLER_0_16_236
*339 FILLER_0_16_244
*340 FILLER_0_16_247
*341 FILLER_0_16_28
*342 FILLER_0_16_311
*343 FILLER_0_16_317
*344 FILLER_0_16_32
*345 FILLER_0_16_34
*346 FILLER_0_16_37
*347 FILLER_0_17_100
*348 FILLER_0_17_130
*349 FILLER_0_17_136
*350 FILLER_0_17_206
*351 FILLER_0_17_212
*352 FILLER_0_17_245
*353 FILLER_0_17_277
*354 FILLER_0_17_279
*355 FILLER_0_17_28
*356 FILLER_0_17_282
*357 FILLER_0_17_346
*358 FILLER_0_17_348
*359 FILLER_0_17_60
*360 FILLER_0_17_68
*361 FILLER_0_17_72
*362 FILLER_0_17_88
*363 FILLER_0_17_96
*364 FILLER_0_18_107
*365 FILLER_0_18_111
*366 FILLER_0_18_124
*367 FILLER_0_18_128
*368 FILLER_0_18_136
*369 FILLER_0_18_159
*370 FILLER_0_18_171
*371 FILLER_0_18_177
*372 FILLER_0_18_224
*373 FILLER_0_18_240
*374 FILLER_0_18_244
*375 FILLER_0_18_247
*376 FILLER_0_18_28
*377 FILLER_0_18_311
*378 FILLER_0_18_317
*379 FILLER_0_18_32
*380 FILLER_0_18_321
*381 FILLER_0_18_34
*382 FILLER_0_18_37
*383 FILLER_0_18_69
*384 FILLER_0_18_73
*385 FILLER_0_18_75
*386 FILLER_0_19_119
*387 FILLER_0_19_123
*388 FILLER_0_19_139
*389 FILLER_0_19_142
*390 FILLER_0_19_179
*391 FILLER_0_19_181
*392 FILLER_0_19_197
*393 FILLER_0_19_2
*394 FILLER_0_19_212
*395 FILLER_0_19_214
*396 FILLER_0_19_244
*397 FILLER_0_19_276
*398 FILLER_0_19_282
*399 FILLER_0_19_314
*400 FILLER_0_19_322
*401 FILLER_0_19_66
*402 FILLER_0_19_72
*403 FILLER_0_19_88
*404 FILLER_0_1_136
*405 FILLER_0_1_142
*406 FILLER_0_1_150
*407 FILLER_0_1_154
*408 FILLER_0_1_156
*409 FILLER_0_1_183
*410 FILLER_0_1_199
*411 FILLER_0_1_2
*412 FILLER_0_1_207
*413 FILLER_0_1_209
*414 FILLER_0_1_238
*415 FILLER_0_1_270
*416 FILLER_0_1_278
*417 FILLER_0_1_282
*418 FILLER_0_1_346
*419 FILLER_0_1_348
*420 FILLER_0_1_66
*421 FILLER_0_1_72
*422 FILLER_0_20_101
*423 FILLER_0_20_107
*424 FILLER_0_20_115
*425 FILLER_0_20_119
*426 FILLER_0_20_128
*427 FILLER_0_20_136
*428 FILLER_0_20_138
*429 FILLER_0_20_163
*430 FILLER_0_20_177
*431 FILLER_0_20_181
*432 FILLER_0_20_2
*433 FILLER_0_20_236
*434 FILLER_0_20_244
*435 FILLER_0_20_247
*436 FILLER_0_20_311
*437 FILLER_0_20_317
*438 FILLER_0_20_34
*439 FILLER_0_20_37
*440 FILLER_0_21_130
*441 FILLER_0_21_134
*442 FILLER_0_21_138
*443 FILLER_0_21_150
*444 FILLER_0_21_152
*445 FILLER_0_21_2
*446 FILLER_0_21_218
*447 FILLER_0_21_222
*448 FILLER_0_21_254
*449 FILLER_0_21_270
*450 FILLER_0_21_278
*451 FILLER_0_21_282
*452 FILLER_0_21_346
*453 FILLER_0_21_348
*454 FILLER_0_21_66
*455 FILLER_0_21_72
*456 FILLER_0_21_88
*457 FILLER_0_21_92
*458 FILLER_0_21_94
*459 FILLER_0_22_101
*460 FILLER_0_22_107
*461 FILLER_0_22_115
*462 FILLER_0_22_117
*463 FILLER_0_22_130
*464 FILLER_0_22_171
*465 FILLER_0_22_177
*466 FILLER_0_22_2
*467 FILLER_0_22_212
*468 FILLER_0_22_247
*469 FILLER_0_22_311
*470 FILLER_0_22_317
*471 FILLER_0_22_34
*472 FILLER_0_22_37
*473 FILLER_0_23_136
*474 FILLER_0_23_148
*475 FILLER_0_23_186
*476 FILLER_0_23_190
*477 FILLER_0_23_2
*478 FILLER_0_23_243
*479 FILLER_0_23_275
*480 FILLER_0_23_279
*481 FILLER_0_23_282
*482 FILLER_0_23_314
*483 FILLER_0_23_322
*484 FILLER_0_23_66
*485 FILLER_0_23_72
*486 FILLER_0_24_101
*487 FILLER_0_24_107
*488 FILLER_0_24_111
*489 FILLER_0_24_113
*490 FILLER_0_24_116
*491 FILLER_0_24_171
*492 FILLER_0_24_2
*493 FILLER_0_24_210
*494 FILLER_0_24_212
*495 FILLER_0_24_242
*496 FILLER_0_24_244
*497 FILLER_0_24_247
*498 FILLER_0_24_311
*499 FILLER_0_24_317
*500 FILLER_0_24_321
*501 FILLER_0_24_34
*502 FILLER_0_24_37
*503 FILLER_0_25_123
*504 FILLER_0_25_127
*505 FILLER_0_25_136
*506 FILLER_0_25_158
*507 FILLER_0_25_2
*508 FILLER_0_25_212
*509 FILLER_0_25_218
*510 FILLER_0_25_232
*511 FILLER_0_25_264
*512 FILLER_0_25_282
*513 FILLER_0_25_346
*514 FILLER_0_25_348
*515 FILLER_0_25_66
*516 FILLER_0_25_72
*517 FILLER_0_25_80
*518 FILLER_0_25_84
*519 FILLER_0_26_120
*520 FILLER_0_26_151
*521 FILLER_0_26_173
*522 FILLER_0_26_190
*523 FILLER_0_26_206
*524 FILLER_0_26_247
*525 FILLER_0_26_28
*526 FILLER_0_26_311
*527 FILLER_0_26_317
*528 FILLER_0_26_32
*529 FILLER_0_26_321
*530 FILLER_0_26_34
*531 FILLER_0_26_37
*532 FILLER_0_26_69
*533 FILLER_0_26_85
*534 FILLER_0_26_93
*535 FILLER_0_26_97
*536 FILLER_0_26_99
*537 FILLER_0_27_114
*538 FILLER_0_27_118
*539 FILLER_0_27_134
*540 FILLER_0_27_138
*541 FILLER_0_27_150
*542 FILLER_0_27_158
*543 FILLER_0_27_172
*544 FILLER_0_27_176
*545 FILLER_0_27_188
*546 FILLER_0_27_204
*547 FILLER_0_27_208
*548 FILLER_0_27_212
*549 FILLER_0_27_276
*550 FILLER_0_27_28
*551 FILLER_0_27_282
*552 FILLER_0_27_346
*553 FILLER_0_27_348
*554 FILLER_0_27_60
*555 FILLER_0_27_68
*556 FILLER_0_27_72
*557 FILLER_0_27_80
*558 FILLER_0_27_84
*559 FILLER_0_28_101
*560 FILLER_0_28_107
*561 FILLER_0_28_171
*562 FILLER_0_28_177
*563 FILLER_0_28_193
*564 FILLER_0_28_2
*565 FILLER_0_28_201
*566 FILLER_0_28_205
*567 FILLER_0_28_212
*568 FILLER_0_28_244
*569 FILLER_0_28_247
*570 FILLER_0_28_311
*571 FILLER_0_28_317
*572 FILLER_0_28_34
*573 FILLER_0_28_37
*574 FILLER_0_29_104
*575 FILLER_0_29_112
*576 FILLER_0_29_116
*577 FILLER_0_29_118
*578 FILLER_0_29_123
*579 FILLER_0_29_131
*580 FILLER_0_29_135
*581 FILLER_0_29_138
*582 FILLER_0_29_142
*583 FILLER_0_29_150
*584 FILLER_0_29_181
*585 FILLER_0_29_185
*586 FILLER_0_29_189
*587 FILLER_0_29_191
*588 FILLER_0_29_2
*589 FILLER_0_29_208
*590 FILLER_0_29_226
*591 FILLER_0_29_258
*592 FILLER_0_29_274
*593 FILLER_0_29_278
*594 FILLER_0_29_282
*595 FILLER_0_29_346
*596 FILLER_0_29_348
*597 FILLER_0_29_66
*598 FILLER_0_29_72
*599 FILLER_0_2_101
*600 FILLER_0_2_107
*601 FILLER_0_2_171
*602 FILLER_0_2_177
*603 FILLER_0_2_2
*604 FILLER_0_2_209
*605 FILLER_0_2_237
*606 FILLER_0_2_247
*607 FILLER_0_2_311
*608 FILLER_0_2_317
*609 FILLER_0_2_34
*610 FILLER_0_2_37
*611 FILLER_0_30_101
*612 FILLER_0_30_141
*613 FILLER_0_30_171
*614 FILLER_0_30_182
*615 FILLER_0_30_2
*616 FILLER_0_30_242
*617 FILLER_0_30_244
*618 FILLER_0_30_247
*619 FILLER_0_30_311
*620 FILLER_0_30_317
*621 FILLER_0_30_34
*622 FILLER_0_30_37
*623 FILLER_0_31_104
*624 FILLER_0_31_108
*625 FILLER_0_31_139
*626 FILLER_0_31_142
*627 FILLER_0_31_146
*628 FILLER_0_31_188
*629 FILLER_0_31_192
*630 FILLER_0_31_2
*631 FILLER_0_31_208
*632 FILLER_0_31_212
*633 FILLER_0_31_216
*634 FILLER_0_31_220
*635 FILLER_0_31_252
*636 FILLER_0_31_268
*637 FILLER_0_31_276
*638 FILLER_0_31_282
*639 FILLER_0_31_346
*640 FILLER_0_31_348
*641 FILLER_0_31_66
*642 FILLER_0_31_72
*643 FILLER_0_32_101
*644 FILLER_0_32_107
*645 FILLER_0_32_123
*646 FILLER_0_32_125
*647 FILLER_0_32_139
*648 FILLER_0_32_143
*649 FILLER_0_32_159
*650 FILLER_0_32_165
*651 FILLER_0_32_169
*652 FILLER_0_32_177
*653 FILLER_0_32_2
*654 FILLER_0_32_241
*655 FILLER_0_32_247
*656 FILLER_0_32_311
*657 FILLER_0_32_317
*658 FILLER_0_32_34
*659 FILLER_0_32_37
*660 FILLER_0_33_136
*661 FILLER_0_33_142
*662 FILLER_0_33_2
*663 FILLER_0_33_206
*664 FILLER_0_33_212
*665 FILLER_0_33_276
*666 FILLER_0_33_282
*667 FILLER_0_33_346
*668 FILLER_0_33_348
*669 FILLER_0_33_66
*670 FILLER_0_33_72
*671 FILLER_0_34_101
*672 FILLER_0_34_107
*673 FILLER_0_34_171
*674 FILLER_0_34_177
*675 FILLER_0_34_2
*676 FILLER_0_34_241
*677 FILLER_0_34_247
*678 FILLER_0_34_311
*679 FILLER_0_34_317
*680 FILLER_0_34_34
*681 FILLER_0_34_37
*682 FILLER_0_35_136
*683 FILLER_0_35_142
*684 FILLER_0_35_2
*685 FILLER_0_35_206
*686 FILLER_0_35_212
*687 FILLER_0_35_276
*688 FILLER_0_35_282
*689 FILLER_0_35_346
*690 FILLER_0_35_348
*691 FILLER_0_35_66
*692 FILLER_0_35_72
*693 FILLER_0_36_101
*694 FILLER_0_36_107
*695 FILLER_0_36_171
*696 FILLER_0_36_177
*697 FILLER_0_36_2
*698 FILLER_0_36_241
*699 FILLER_0_36_247
*700 FILLER_0_36_311
*701 FILLER_0_36_317
*702 FILLER_0_36_34
*703 FILLER_0_36_37
*704 FILLER_0_37_136
*705 FILLER_0_37_142
*706 FILLER_0_37_2
*707 FILLER_0_37_206
*708 FILLER_0_37_212
*709 FILLER_0_37_276
*710 FILLER_0_37_282
*711 FILLER_0_37_346
*712 FILLER_0_37_348
*713 FILLER_0_37_66
*714 FILLER_0_37_72
*715 FILLER_0_38_101
*716 FILLER_0_38_107
*717 FILLER_0_38_171
*718 FILLER_0_38_177
*719 FILLER_0_38_2
*720 FILLER_0_38_241
*721 FILLER_0_38_247
*722 FILLER_0_38_311
*723 FILLER_0_38_317
*724 FILLER_0_38_34
*725 FILLER_0_38_37
*726 FILLER_0_39_136
*727 FILLER_0_39_142
*728 FILLER_0_39_2
*729 FILLER_0_39_206
*730 FILLER_0_39_212
*731 FILLER_0_39_276
*732 FILLER_0_39_282
*733 FILLER_0_39_346
*734 FILLER_0_39_348
*735 FILLER_0_39_66
*736 FILLER_0_39_72
*737 FILLER_0_3_136
*738 FILLER_0_3_142
*739 FILLER_0_3_2
*740 FILLER_0_3_206
*741 FILLER_0_3_212
*742 FILLER_0_3_276
*743 FILLER_0_3_282
*744 FILLER_0_3_346
*745 FILLER_0_3_348
*746 FILLER_0_3_66
*747 FILLER_0_3_72
*748 FILLER_0_40_101
*749 FILLER_0_40_107
*750 FILLER_0_40_171
*751 FILLER_0_40_177
*752 FILLER_0_40_2
*753 FILLER_0_40_241
*754 FILLER_0_40_247
*755 FILLER_0_40_311
*756 FILLER_0_40_317
*757 FILLER_0_40_34
*758 FILLER_0_40_37
*759 FILLER_0_41_136
*760 FILLER_0_41_142
*761 FILLER_0_41_2
*762 FILLER_0_41_206
*763 FILLER_0_41_212
*764 FILLER_0_41_276
*765 FILLER_0_41_282
*766 FILLER_0_41_346
*767 FILLER_0_41_348
*768 FILLER_0_41_66
*769 FILLER_0_41_72
*770 FILLER_0_42_101
*771 FILLER_0_42_107
*772 FILLER_0_42_171
*773 FILLER_0_42_177
*774 FILLER_0_42_22
*775 FILLER_0_42_241
*776 FILLER_0_42_247
*777 FILLER_0_42_30
*778 FILLER_0_42_311
*779 FILLER_0_42_317
*780 FILLER_0_42_34
*781 FILLER_0_42_37
*782 FILLER_0_42_6
*783 FILLER_0_43_136
*784 FILLER_0_43_168
*785 FILLER_0_43_195
*786 FILLER_0_43_2
*787 FILLER_0_43_203
*788 FILLER_0_43_207
*789 FILLER_0_43_209
*790 FILLER_0_43_212
*791 FILLER_0_43_216
*792 FILLER_0_43_243
*793 FILLER_0_43_275
*794 FILLER_0_43_279
*795 FILLER_0_43_282
*796 FILLER_0_43_346
*797 FILLER_0_43_348
*798 FILLER_0_43_66
*799 FILLER_0_43_72
*800 FILLER_0_44_104
*801 FILLER_0_44_138
*802 FILLER_0_44_169
*803 FILLER_0_44_172
*804 FILLER_0_44_176
*805 FILLER_0_44_2
*806 FILLER_0_44_206
*807 FILLER_0_44_210
*808 FILLER_0_44_237
*809 FILLER_0_44_266
*810 FILLER_0_44_270
*811 FILLER_0_44_274
*812 FILLER_0_44_308
*813 FILLER_0_44_342
*814 FILLER_0_44_346
*815 FILLER_0_44_348
*816 FILLER_0_44_36
*817 FILLER_0_44_70
*818 FILLER_0_4_101
*819 FILLER_0_4_107
*820 FILLER_0_4_171
*821 FILLER_0_4_177
*822 FILLER_0_4_2
*823 FILLER_0_4_241
*824 FILLER_0_4_247
*825 FILLER_0_4_311
*826 FILLER_0_4_317
*827 FILLER_0_4_34
*828 FILLER_0_4_37
*829 FILLER_0_5_136
*830 FILLER_0_5_142
*831 FILLER_0_5_2
*832 FILLER_0_5_206
*833 FILLER_0_5_212
*834 FILLER_0_5_276
*835 FILLER_0_5_282
*836 FILLER_0_5_346
*837 FILLER_0_5_348
*838 FILLER_0_5_66
*839 FILLER_0_5_72
*840 FILLER_0_6_101
*841 FILLER_0_6_107
*842 FILLER_0_6_171
*843 FILLER_0_6_177
*844 FILLER_0_6_2
*845 FILLER_0_6_241
*846 FILLER_0_6_247
*847 FILLER_0_6_311
*848 FILLER_0_6_317
*849 FILLER_0_6_34
*850 FILLER_0_6_37
*851 FILLER_0_7_136
*852 FILLER_0_7_142
*853 FILLER_0_7_2
*854 FILLER_0_7_206
*855 FILLER_0_7_212
*856 FILLER_0_7_276
*857 FILLER_0_7_282
*858 FILLER_0_7_346
*859 FILLER_0_7_348
*860 FILLER_0_7_66
*861 FILLER_0_7_72
*862 FILLER_0_8_101
*863 FILLER_0_8_107
*864 FILLER_0_8_171
*865 FILLER_0_8_177
*866 FILLER_0_8_2
*867 FILLER_0_8_241
*868 FILLER_0_8_247
*869 FILLER_0_8_311
*870 FILLER_0_8_317
*871 FILLER_0_8_34
*872 FILLER_0_8_37
*873 FILLER_0_9_136
*874 FILLER_0_9_142
*875 FILLER_0_9_2
*876 FILLER_0_9_206
*877 FILLER_0_9_212
*878 FILLER_0_9_276
*879 FILLER_0_9_282
*880 FILLER_0_9_346
*881 FILLER_0_9_348
*882 FILLER_0_9_66
*883 FILLER_0_9_72
*884 PHY_EDGE_ROW_0_Left_45
*885 PHY_EDGE_ROW_0_Right_0
*886 PHY_EDGE_ROW_10_Left_55
*887 PHY_EDGE_ROW_10_Right_10
*888 PHY_EDGE_ROW_11_Left_56
*889 PHY_EDGE_ROW_11_Right_11
*890 PHY_EDGE_ROW_12_Left_57
*891 PHY_EDGE_ROW_12_Right_12
*892 PHY_EDGE_ROW_13_Left_58
*893 PHY_EDGE_ROW_13_Right_13
*894 PHY_EDGE_ROW_14_Left_59
*895 PHY_EDGE_ROW_14_Right_14
*896 PHY_EDGE_ROW_15_Left_60
*897 PHY_EDGE_ROW_15_Right_15
*898 PHY_EDGE_ROW_16_Left_61
*899 PHY_EDGE_ROW_16_Right_16
*900 PHY_EDGE_ROW_17_Left_62
*901 PHY_EDGE_ROW_17_Right_17
*902 PHY_EDGE_ROW_18_Left_63
*903 PHY_EDGE_ROW_18_Right_18
*904 PHY_EDGE_ROW_19_Left_64
*905 PHY_EDGE_ROW_19_Right_19
*906 PHY_EDGE_ROW_1_Left_46
*907 PHY_EDGE_ROW_1_Right_1
*908 PHY_EDGE_ROW_20_Left_65
*909 PHY_EDGE_ROW_20_Right_20
*910 PHY_EDGE_ROW_21_Left_66
*911 PHY_EDGE_ROW_21_Right_21
*912 PHY_EDGE_ROW_22_Left_67
*913 PHY_EDGE_ROW_22_Right_22
*914 PHY_EDGE_ROW_23_Left_68
*915 PHY_EDGE_ROW_23_Right_23
*916 PHY_EDGE_ROW_24_Left_69
*917 PHY_EDGE_ROW_24_Right_24
*918 PHY_EDGE_ROW_25_Left_70
*919 PHY_EDGE_ROW_25_Right_25
*920 PHY_EDGE_ROW_26_Left_71
*921 PHY_EDGE_ROW_26_Right_26
*922 PHY_EDGE_ROW_27_Left_72
*923 PHY_EDGE_ROW_27_Right_27
*924 PHY_EDGE_ROW_28_Left_73
*925 PHY_EDGE_ROW_28_Right_28
*926 PHY_EDGE_ROW_29_Left_74
*927 PHY_EDGE_ROW_29_Right_29
*928 PHY_EDGE_ROW_2_Left_47
*929 PHY_EDGE_ROW_2_Right_2
*930 PHY_EDGE_ROW_30_Left_75
*931 PHY_EDGE_ROW_30_Right_30
*932 PHY_EDGE_ROW_31_Left_76
*933 PHY_EDGE_ROW_31_Right_31
*934 PHY_EDGE_ROW_32_Left_77
*935 PHY_EDGE_ROW_32_Right_32
*936 PHY_EDGE_ROW_33_Left_78
*937 PHY_EDGE_ROW_33_Right_33
*938 PHY_EDGE_ROW_34_Left_79
*939 PHY_EDGE_ROW_34_Right_34
*940 PHY_EDGE_ROW_35_Left_80
*941 PHY_EDGE_ROW_35_Right_35
*942 PHY_EDGE_ROW_36_Left_81
*943 PHY_EDGE_ROW_36_Right_36
*944 PHY_EDGE_ROW_37_Left_82
*945 PHY_EDGE_ROW_37_Right_37
*946 PHY_EDGE_ROW_38_Left_83
*947 PHY_EDGE_ROW_38_Right_38
*948 PHY_EDGE_ROW_39_Left_84
*949 PHY_EDGE_ROW_39_Right_39
*950 PHY_EDGE_ROW_3_Left_48
*951 PHY_EDGE_ROW_3_Right_3
*952 PHY_EDGE_ROW_40_Left_85
*953 PHY_EDGE_ROW_40_Right_40
*954 PHY_EDGE_ROW_41_Left_86
*955 PHY_EDGE_ROW_41_Right_41
*956 PHY_EDGE_ROW_42_Left_87
*957 PHY_EDGE_ROW_42_Right_42
*958 PHY_EDGE_ROW_43_Left_88
*959 PHY_EDGE_ROW_43_Right_43
*960 PHY_EDGE_ROW_44_Left_89
*961 PHY_EDGE_ROW_44_Right_44
*962 PHY_EDGE_ROW_4_Left_49
*963 PHY_EDGE_ROW_4_Right_4
*964 PHY_EDGE_ROW_5_Left_50
*965 PHY_EDGE_ROW_5_Right_5
*966 PHY_EDGE_ROW_6_Left_51
*967 PHY_EDGE_ROW_6_Right_6
*968 PHY_EDGE_ROW_7_Left_52
*969 PHY_EDGE_ROW_7_Right_7
*970 PHY_EDGE_ROW_8_Left_53
*971 PHY_EDGE_ROW_8_Right_8
*972 PHY_EDGE_ROW_9_Left_54
*973 PHY_EDGE_ROW_9_Right_9
*974 TAP_TAPCELL_ROW_0_90
*975 TAP_TAPCELL_ROW_0_91
*976 TAP_TAPCELL_ROW_0_92
*977 TAP_TAPCELL_ROW_0_93
*978 TAP_TAPCELL_ROW_0_94
*979 TAP_TAPCELL_ROW_0_95
*980 TAP_TAPCELL_ROW_0_96
*981 TAP_TAPCELL_ROW_0_97
*982 TAP_TAPCELL_ROW_0_98
*983 TAP_TAPCELL_ROW_0_99
*984 TAP_TAPCELL_ROW_10_140
*985 TAP_TAPCELL_ROW_10_141
*986 TAP_TAPCELL_ROW_10_142
*987 TAP_TAPCELL_ROW_10_143
*988 TAP_TAPCELL_ROW_10_144
*989 TAP_TAPCELL_ROW_11_145
*990 TAP_TAPCELL_ROW_11_146
*991 TAP_TAPCELL_ROW_11_147
*992 TAP_TAPCELL_ROW_11_148
*993 TAP_TAPCELL_ROW_12_149
*994 TAP_TAPCELL_ROW_12_150
*995 TAP_TAPCELL_ROW_12_151
*996 TAP_TAPCELL_ROW_12_152
*997 TAP_TAPCELL_ROW_12_153
*998 TAP_TAPCELL_ROW_13_154
*999 TAP_TAPCELL_ROW_13_155
*1000 TAP_TAPCELL_ROW_13_156
*1001 TAP_TAPCELL_ROW_13_157
*1002 TAP_TAPCELL_ROW_14_158
*1003 TAP_TAPCELL_ROW_14_159
*1004 TAP_TAPCELL_ROW_14_160
*1005 TAP_TAPCELL_ROW_14_161
*1006 TAP_TAPCELL_ROW_14_162
*1007 TAP_TAPCELL_ROW_15_163
*1008 TAP_TAPCELL_ROW_15_164
*1009 TAP_TAPCELL_ROW_15_165
*1010 TAP_TAPCELL_ROW_15_166
*1011 TAP_TAPCELL_ROW_16_167
*1012 TAP_TAPCELL_ROW_16_168
*1013 TAP_TAPCELL_ROW_16_169
*1014 TAP_TAPCELL_ROW_16_170
*1015 TAP_TAPCELL_ROW_16_171
*1016 TAP_TAPCELL_ROW_17_172
*1017 TAP_TAPCELL_ROW_17_173
*1018 TAP_TAPCELL_ROW_17_174
*1019 TAP_TAPCELL_ROW_17_175
*1020 TAP_TAPCELL_ROW_18_176
*1021 TAP_TAPCELL_ROW_18_177
*1022 TAP_TAPCELL_ROW_18_178
*1023 TAP_TAPCELL_ROW_18_179
*1024 TAP_TAPCELL_ROW_18_180
*1025 TAP_TAPCELL_ROW_19_181
*1026 TAP_TAPCELL_ROW_19_182
*1027 TAP_TAPCELL_ROW_19_183
*1028 TAP_TAPCELL_ROW_19_184
*1029 TAP_TAPCELL_ROW_1_100
*1030 TAP_TAPCELL_ROW_1_101
*1031 TAP_TAPCELL_ROW_1_102
*1032 TAP_TAPCELL_ROW_1_103
*1033 TAP_TAPCELL_ROW_20_185
*1034 TAP_TAPCELL_ROW_20_186
*1035 TAP_TAPCELL_ROW_20_187
*1036 TAP_TAPCELL_ROW_20_188
*1037 TAP_TAPCELL_ROW_20_189
*1038 TAP_TAPCELL_ROW_21_190
*1039 TAP_TAPCELL_ROW_21_191
*1040 TAP_TAPCELL_ROW_21_192
*1041 TAP_TAPCELL_ROW_21_193
*1042 TAP_TAPCELL_ROW_22_194
*1043 TAP_TAPCELL_ROW_22_195
*1044 TAP_TAPCELL_ROW_22_196
*1045 TAP_TAPCELL_ROW_22_197
*1046 TAP_TAPCELL_ROW_22_198
*1047 TAP_TAPCELL_ROW_23_199
*1048 TAP_TAPCELL_ROW_23_200
*1049 TAP_TAPCELL_ROW_23_201
*1050 TAP_TAPCELL_ROW_23_202
*1051 TAP_TAPCELL_ROW_24_203
*1052 TAP_TAPCELL_ROW_24_204
*1053 TAP_TAPCELL_ROW_24_205
*1054 TAP_TAPCELL_ROW_24_206
*1055 TAP_TAPCELL_ROW_24_207
*1056 TAP_TAPCELL_ROW_25_208
*1057 TAP_TAPCELL_ROW_25_209
*1058 TAP_TAPCELL_ROW_25_210
*1059 TAP_TAPCELL_ROW_25_211
*1060 TAP_TAPCELL_ROW_26_212
*1061 TAP_TAPCELL_ROW_26_213
*1062 TAP_TAPCELL_ROW_26_214
*1063 TAP_TAPCELL_ROW_26_215
*1064 TAP_TAPCELL_ROW_26_216
*1065 TAP_TAPCELL_ROW_27_217
*1066 TAP_TAPCELL_ROW_27_218
*1067 TAP_TAPCELL_ROW_27_219
*1068 TAP_TAPCELL_ROW_27_220
*1069 TAP_TAPCELL_ROW_28_221
*1070 TAP_TAPCELL_ROW_28_222
*1071 TAP_TAPCELL_ROW_28_223
*1072 TAP_TAPCELL_ROW_28_224
*1073 TAP_TAPCELL_ROW_28_225
*1074 TAP_TAPCELL_ROW_29_226
*1075 TAP_TAPCELL_ROW_29_227
*1076 TAP_TAPCELL_ROW_29_228
*1077 TAP_TAPCELL_ROW_29_229
*1078 TAP_TAPCELL_ROW_2_104
*1079 TAP_TAPCELL_ROW_2_105
*1080 TAP_TAPCELL_ROW_2_106
*1081 TAP_TAPCELL_ROW_2_107
*1082 TAP_TAPCELL_ROW_2_108
*1083 TAP_TAPCELL_ROW_30_230
*1084 TAP_TAPCELL_ROW_30_231
*1085 TAP_TAPCELL_ROW_30_232
*1086 TAP_TAPCELL_ROW_30_233
*1087 TAP_TAPCELL_ROW_30_234
*1088 TAP_TAPCELL_ROW_31_235
*1089 TAP_TAPCELL_ROW_31_236
*1090 TAP_TAPCELL_ROW_31_237
*1091 TAP_TAPCELL_ROW_31_238
*1092 TAP_TAPCELL_ROW_32_239
*1093 TAP_TAPCELL_ROW_32_240
*1094 TAP_TAPCELL_ROW_32_241
*1095 TAP_TAPCELL_ROW_32_242
*1096 TAP_TAPCELL_ROW_32_243
*1097 TAP_TAPCELL_ROW_33_244
*1098 TAP_TAPCELL_ROW_33_245
*1099 TAP_TAPCELL_ROW_33_246
*1100 TAP_TAPCELL_ROW_33_247
*1101 TAP_TAPCELL_ROW_34_248
*1102 TAP_TAPCELL_ROW_34_249
*1103 TAP_TAPCELL_ROW_34_250
*1104 TAP_TAPCELL_ROW_34_251
*1105 TAP_TAPCELL_ROW_34_252
*1106 TAP_TAPCELL_ROW_35_253
*1107 TAP_TAPCELL_ROW_35_254
*1108 TAP_TAPCELL_ROW_35_255
*1109 TAP_TAPCELL_ROW_35_256
*1110 TAP_TAPCELL_ROW_36_257
*1111 TAP_TAPCELL_ROW_36_258
*1112 TAP_TAPCELL_ROW_36_259
*1113 TAP_TAPCELL_ROW_36_260
*1114 TAP_TAPCELL_ROW_36_261
*1115 TAP_TAPCELL_ROW_37_262
*1116 TAP_TAPCELL_ROW_37_263
*1117 TAP_TAPCELL_ROW_37_264
*1118 TAP_TAPCELL_ROW_37_265
*1119 TAP_TAPCELL_ROW_38_266
*1120 TAP_TAPCELL_ROW_38_267
*1121 TAP_TAPCELL_ROW_38_268
*1122 TAP_TAPCELL_ROW_38_269
*1123 TAP_TAPCELL_ROW_38_270
*1124 TAP_TAPCELL_ROW_39_271
*1125 TAP_TAPCELL_ROW_39_272
*1126 TAP_TAPCELL_ROW_39_273
*1127 TAP_TAPCELL_ROW_39_274
*1128 TAP_TAPCELL_ROW_3_109
*1129 TAP_TAPCELL_ROW_3_110
*1130 TAP_TAPCELL_ROW_3_111
*1131 TAP_TAPCELL_ROW_3_112
*1132 TAP_TAPCELL_ROW_40_275
*1133 TAP_TAPCELL_ROW_40_276
*1134 TAP_TAPCELL_ROW_40_277
*1135 TAP_TAPCELL_ROW_40_278
*1136 TAP_TAPCELL_ROW_40_279
*1137 TAP_TAPCELL_ROW_41_280
*1138 TAP_TAPCELL_ROW_41_281
*1139 TAP_TAPCELL_ROW_41_282
*1140 TAP_TAPCELL_ROW_41_283
*1141 TAP_TAPCELL_ROW_42_284
*1142 TAP_TAPCELL_ROW_42_285
*1143 TAP_TAPCELL_ROW_42_286
*1144 TAP_TAPCELL_ROW_42_287
*1145 TAP_TAPCELL_ROW_42_288
*1146 TAP_TAPCELL_ROW_43_289
*1147 TAP_TAPCELL_ROW_43_290
*1148 TAP_TAPCELL_ROW_43_291
*1149 TAP_TAPCELL_ROW_43_292
*1150 TAP_TAPCELL_ROW_44_293
*1151 TAP_TAPCELL_ROW_44_294
*1152 TAP_TAPCELL_ROW_44_295
*1153 TAP_TAPCELL_ROW_44_296
*1154 TAP_TAPCELL_ROW_44_297
*1155 TAP_TAPCELL_ROW_44_298
*1156 TAP_TAPCELL_ROW_44_299
*1157 TAP_TAPCELL_ROW_44_300
*1158 TAP_TAPCELL_ROW_44_301
*1159 TAP_TAPCELL_ROW_44_302
*1160 TAP_TAPCELL_ROW_4_113
*1161 TAP_TAPCELL_ROW_4_114
*1162 TAP_TAPCELL_ROW_4_115
*1163 TAP_TAPCELL_ROW_4_116
*1164 TAP_TAPCELL_ROW_4_117
*1165 TAP_TAPCELL_ROW_5_118
*1166 TAP_TAPCELL_ROW_5_119
*1167 TAP_TAPCELL_ROW_5_120
*1168 TAP_TAPCELL_ROW_5_121
*1169 TAP_TAPCELL_ROW_6_122
*1170 TAP_TAPCELL_ROW_6_123
*1171 TAP_TAPCELL_ROW_6_124
*1172 TAP_TAPCELL_ROW_6_125
*1173 TAP_TAPCELL_ROW_6_126
*1174 TAP_TAPCELL_ROW_7_127
*1175 TAP_TAPCELL_ROW_7_128
*1176 TAP_TAPCELL_ROW_7_129
*1177 TAP_TAPCELL_ROW_7_130
*1178 TAP_TAPCELL_ROW_8_131
*1179 TAP_TAPCELL_ROW_8_132
*1180 TAP_TAPCELL_ROW_8_133
*1181 TAP_TAPCELL_ROW_8_134
*1182 TAP_TAPCELL_ROW_8_135
*1183 TAP_TAPCELL_ROW_9_136
*1184 TAP_TAPCELL_ROW_9_137
*1185 TAP_TAPCELL_ROW_9_138
*1186 TAP_TAPCELL_ROW_9_139
*1187 _107_
*1188 _108_
*1189 _109_
*1190 _110_
*1191 _111_
*1192 _112_
*1193 _113_
*1194 _114_
*1195 _115_
*1196 _116_
*1197 _117_
*1198 _118_
*1199 _119_
*1200 _120_
*1201 _121_
*1202 _122_
*1203 _123_
*1204 _124_
*1205 _125_
*1206 _126_
*1207 _127_
*1208 _128_
*1209 _129_
*1210 _130_
*1211 _131_
*1212 _132_
*1213 _133_
*1214 _134_
*1215 _135_
*1216 _136_
*1217 _137_
*1218 _138_
*1219 _139_
*1220 _140_
*1221 _141_
*1222 _142_
*1223 _143_
*1224 _144_
*1225 _145_
*1226 _146_
*1227 _147_
*1228 _148_
*1229 _149_
*1230 _150_
*1231 _151_
*1232 _152_
*1233 _153_
*1234 _154_
*1235 _155_
*1236 _156_
*1237 _157_
*1238 _158_
*1239 _159_
*1240 _160_
*1241 _161_
*1242 _162_
*1243 _163_
*1244 _164_
*1245 _165_
*1246 _166_
*1247 _167_
*1248 _168_
*1249 _169_
*1250 _170_
*1251 _171_
*1252 _172_
*1253 _173_
*1254 _174_
*1255 _175_
*1256 _176_
*1257 _177_
*1258 _178_
*1259 _179_
*1260 _180_
*1261 _181_
*1262 _182_
*1263 _183_
*1264 _184_
*1265 _185_
*1266 _186_
*1267 _187_
*1268 _188_
*1269 _189_
*1270 _190_
*1271 _191_
*1272 _192_
*1273 _193_
*1274 _194_
*1275 _195_
*1276 _196_
*1277 _197_
*1278 _198_
*1279 _199_
*1280 _200_
*1281 _201_
*1282 _202_
*1283 _203_
*1284 _204_
*1285 _205_
*1286 _206_
*1287 _207_
*1288 _208_
*1289 _209_
*1290 _210_
*1291 _211_
*1292 _212_
*1293 _213_
*1294 _214_
*1295 _215_
*1296 _216_
*1297 _217_
*1298 _218_
*1299 _219_
*1300 _220_
*1301 _221_
*1302 _222_
*1303 _223_
*1304 _224_
*1305 _225_
*1306 _226_
*1307 _227_
*1308 _228_
*1309 _229_
*1310 _230_
*1311 _231_
*1312 _232_
*1313 _233_
*1314 _234_
*1315 _235_
*1316 _236_
*1317 _237_
*1318 _238_
*1319 _239_
*1320 _242_
*1321 _243_
*1322 clkbuf_0_clk
*1323 clkbuf_1_0__f_clk
*1324 clkbuf_1_1__f_clk
*1325 ita59_25
*1326 ita59_26
*1327 output1
*1328 output10
*1329 output11
*1330 output12
*1331 output13
*1332 output14
*1333 output15
*1334 output16
*1335 output17
*1336 output18
*1337 output19
*1338 output2
*1339 output20
*1340 output21
*1341 output22
*1342 output23
*1343 output24
*1344 output3
*1345 output4
*1346 output5
*1347 output6
*1348 output7
*1349 output8
*1350 output9

*PORTS
clk I
segm[0] O
segm[10] O
segm[11] O
segm[12] O
segm[13] O
segm[1] O
segm[2] O
segm[3] O
segm[4] O
segm[5] O
segm[6] O
segm[7] O
segm[8] O
segm[9] O
sel[0] O
sel[10] O
sel[11] O
sel[1] O
sel[2] O
sel[3] O
sel[4] O
sel[5] O
sel[6] O
sel[7] O
sel[8] O
sel[9] O

*D_NET *1 0.0170471
*CONN
*P clk I
*I *1322:I I *D gf180mcu_fd_sc_mcu7t5v0__clkbuf_16
*I *198:I I *D gf180mcu_fd_sc_mcu7t5v0__antenna
*CAP
1 clk 0.00293047
2 *1322:I 0.000216682
3 *198:I 0
4 *1:13 0.00240871
5 *1:11 0.0051225
6 *1322:I *1206:A3 6.81285e-05
7 *1322:I *1259:A1 6.0354e-06
8 *1322:I *134:42 0.000735704
9 *1:13 *1228:A3 0.0015628
10 *1:13 *1259:A1 3.53257e-05
11 *1:13 *1297:D 0.00153872
12 *1:13 *49:10 0.000312562
13 *1:13 *134:18 0.00023711
14 *1:13 *134:42 0.000343864
15 *1:13 *140:10 0
16 *1:13 *141:23 0.00152846
*RES
1 clk *1:11 28.035 
2 *1:11 *1:13 23.13 
3 *1:13 *198:I 9 
4 *1:13 *1322:I 11.07 
*END

*D_NET *2 0.000399217
*CONN
*P segm[0] O
*I *1325:ZN O *D gf180mcu_fd_sc_mcu7t5v0__tiel
*CAP
1 segm[0] 0.000199609
2 *1325:ZN 0.000199609
*RES
1 *1325:ZN segm[0] 10.665 
*END

*D_NET *3 0.000805487
*CONN
*P segm[10] O
*I *1327:Z O *D gf180mcu_fd_sc_mcu7t5v0__buf_8
*CAP
1 segm[10] 0.000402744
2 *1327:Z 0.000402744
*RES
1 *1327:Z segm[10] 11.835 
*END

*D_NET *4 0.000503633
*CONN
*P segm[11] O
*I *1338:Z O *D gf180mcu_fd_sc_mcu7t5v0__buf_8
*CAP
1 segm[11] 0.000218505
2 *1338:Z 0.000218505
3 segm[11] segm[9] 6.66239e-05
*RES
1 *1338:Z segm[11] 11.025 
*END

*D_NET *5 0.000826861
*CONN
*P segm[12] O
*I *1344:Z O *D gf180mcu_fd_sc_mcu7t5v0__buf_8
*CAP
1 segm[12] 0.000383971
2 *1344:Z 0.000383971
3 segm[12] segm[6] 5.8918e-05
*RES
1 *1344:Z segm[12] 11.835 
*END

*D_NET *6 0.00219078
*CONN
*P segm[13] O
*I *1345:Z O *D gf180mcu_fd_sc_mcu7t5v0__buf_8
*CAP
1 segm[13] 0.00109539
2 *1345:Z 0.00109539
*RES
1 *1345:Z segm[13] 21.015 
*END

*D_NET *7 0.00277667
*CONN
*P segm[1] O
*I *1346:Z O *D gf180mcu_fd_sc_mcu7t5v0__buf_8
*CAP
1 segm[1] 0.00108072
2 *1346:Z 0.00108072
3 segm[1] segm[4] 0.000121611
4 segm[1] sel[5] 4.37983e-05
5 segm[1] sel[9] 1.03727e-05
6 segm[1] *1343:I 0.000284259
7 segm[1] *1349:I 0.000155192
*RES
1 *1346:Z segm[1] 22.815 
*END

*D_NET *8 0.00210042
*CONN
*P segm[2] O
*I *1347:Z O *D gf180mcu_fd_sc_mcu7t5v0__buf_8
*CAP
1 segm[2] 0.000863709
2 *1347:Z 0.000863709
3 segm[2] segm[3] 0.000149603