*SPEF "ieee 1481-1999"
*DESIGN "ita7"
*DATE "11:11:11 Fri 11 11, 1111"
*VENDOR "OpenRCX"
*PROGRAM "Parallel Extraction"
*VERSION "1.0"
*DESIGN_FLOW "NAME_SCOPE LOCAL" "PIN_CAP NONE"
*DIVIDER /
*DELIMITER :
*BUS_DELIMITER []
*T_UNIT 1 NS
*C_UNIT 1 PF
*R_UNIT 1 OHM
*L_UNIT 1 HENRY

*NAME_MAP
*1 clk
*2 segm[0]
*3 segm[10]
*4 segm[11]
*5 segm[12]
*6 segm[13]
*7 net25
*8 segm[2]
*9 segm[3]
*10 net26
*11 segm[5]
*12 segm[6]
*13 segm[7]
*14 segm[8]
*15 segm[9]
*16 sel[0]
*17 sel[10]
*18 sel[11]
*19 sel[1]
*20 sel[2]
*21 sel[3]
*22 sel[4]
*23 sel[5]
*24 sel[6]
*25 sel[7]
*26 sel[8]
*27 sel[9]
*30 _000_
*31 _001_
*32 _002_
*33 _003_
*34 _004_
*35 _005_
*36 _006_
*37 _007_
*38 _008_
*39 _009_
*40 _010_
*41 _011_
*42 _012_
*43 _013_
*44 _014_
*45 _015_
*46 _016_
*47 _017_
*48 _018_
*49 _019_
*50 _020_
*51 _021_
*52 _022_
*53 _023_
*54 _024_
*55 _025_
*56 _026_
*57 _027_
*58 _028_
*59 _029_
*60 _030_
*61 _031_
*62 _032_
*63 _033_
*64 _034_
*65 _035_
*66 _036_
*67 _037_
*68 _038_
*69 _039_
*70 _040_
*71 _041_
*72 _042_
*73 _043_
*74 _044_
*75 _045_
*76 _046_
*77 _047_
*78 _048_
*79 _049_
*80 _050_
*81 _051_
*82 _052_
*83 _053_
*84 _054_
*85 _055_
*86 _056_
*87 _057_
*88 _058_
*89 _059_
*90 _060_
*91 _061_
*92 _062_
*93 _063_
*94 _064_
*95 _065_
*96 _066_
*97 _067_
*98 _068_
*99 _069_
*100 _070_
*101 _071_
*102 _072_
*103 _073_
*104 _074_
*105 _075_
*106 _076_
*107 _077_
*108 _078_
*109 _079_
*110 _080_
*111 _081_
*112 _082_
*113 _083_
*114 _084_
*115 _085_
*116 _086_
*117 _087_
*118 _088_
*119 _089_
*120 _090_
*121 _091_
*122 _092_
*123 _093_
*124 _094_
*125 _095_
*126 _096_
*127 _097_
*128 _098_
*129 _099_
*130 _100_
*131 clknet_0_clk
*132 clknet_1_0__leaf_clk
*133 clknet_1_1__leaf_clk
*134 dut7\.count\[0\]
*135 dut7\.count\[1\]
*136 dut7\.count\[2\]
*137 dut7\.count\[3\]
*138 net1
*139 net10
*140 net11
*141 net12
*142 net13
*143 net14
*144 net15
*145 net16
*146 net17
*147 net18
*148 net19
*149 net2
*150 net20
*151 net21
*152 net22
*153 net23
*154 net24
*155 net3
*156 net4
*157 net5
*158 net6
*159 net7
*160 net8
*161 net9
*162 ANTENNA__202__CLK
*163 ANTENNA__203__CLK
*164 ANTENNA__204__CLK
*165 ANTENNA__205__CLK
*166 ANTENNA__206__CLK
*167 ANTENNA__207__CLK
*168 ANTENNA__208__CLK
*169 ANTENNA__209__CLK
*170 ANTENNA__210__CLK
*171 ANTENNA__211__CLK
*172 ANTENNA__212__CLK
*173 ANTENNA__213__CLK
*174 ANTENNA__214__CLK
*175 ANTENNA__215__CLK
*176 ANTENNA__216__CLK
*177 ANTENNA__217__CLK
*178 ANTENNA__218__CLK
*179 ANTENNA__219__CLK
*180 ANTENNA__220__CLK
*181 ANTENNA__221__CLK
*182 ANTENNA__222__CLK
*183 ANTENNA__223__CLK
*184 ANTENNA__224__CLK
*185 ANTENNA__225__CLK
*186 ANTENNA__226__CLK
*187 ANTENNA__227__CLK
*188 ANTENNA_clkbuf_0_clk_I
*189 FILLER_0_0_104
*190 FILLER_0_0_138
*191 FILLER_0_0_142
*192 FILLER_0_0_172
*193 FILLER_0_0_176
*194 FILLER_0_0_2
*195 FILLER_0_0_232
*196 FILLER_0_0_236
*197 FILLER_0_0_240
*198 FILLER_0_0_274
*199 FILLER_0_0_308
*200 FILLER_0_0_342
*201 FILLER_0_0_346
*202 FILLER_0_0_348
*203 FILLER_0_0_36
*204 FILLER_0_0_70
*205 FILLER_0_10_101
*206 FILLER_0_10_107
*207 FILLER_0_10_171
*208 FILLER_0_10_177
*209 FILLER_0_10_2
*210 FILLER_0_10_241
*211 FILLER_0_10_247
*212 FILLER_0_10_311
*213 FILLER_0_10_317
*214 FILLER_0_10_34
*215 FILLER_0_10_37
*216 FILLER_0_11_136
*217 FILLER_0_11_142
*218 FILLER_0_11_2
*219 FILLER_0_11_206
*220 FILLER_0_11_212
*221 FILLER_0_11_276
*222 FILLER_0_11_282
*223 FILLER_0_11_346
*224 FILLER_0_11_348
*225 FILLER_0_11_66
*226 FILLER_0_11_72
*227 FILLER_0_12_101
*228 FILLER_0_12_107
*229 FILLER_0_12_123
*230 FILLER_0_12_131
*231 FILLER_0_12_135
*232 FILLER_0_12_139
*233 FILLER_0_12_141
*234 FILLER_0_12_171
*235 FILLER_0_12_177
*236 FILLER_0_12_2
*237 FILLER_0_12_241
*238 FILLER_0_12_247
*239 FILLER_0_12_311
*240 FILLER_0_12_317
*241 FILLER_0_12_34
*242 FILLER_0_12_37
*243 FILLER_0_13_138
*244 FILLER_0_13_142
*245 FILLER_0_13_146
*246 FILLER_0_13_152
*247 FILLER_0_13_156
*248 FILLER_0_13_164
*249 FILLER_0_13_172
*250 FILLER_0_13_2
*251 FILLER_0_13_202
*252 FILLER_0_13_206
*253 FILLER_0_13_212
*254 FILLER_0_13_276
*255 FILLER_0_13_282
*256 FILLER_0_13_346
*257 FILLER_0_13_348
*258 FILLER_0_13_66
*259 FILLER_0_13_72
*260 FILLER_0_14_101
*261 FILLER_0_14_107
*262 FILLER_0_14_123
*263 FILLER_0_14_177
*264 FILLER_0_14_181
*265 FILLER_0_14_191
*266 FILLER_0_14_2
*267 FILLER_0_14_207
*268 FILLER_0_14_215
*269 FILLER_0_14_247
*270 FILLER_0_14_251
*271 FILLER_0_14_317
*272 FILLER_0_14_333
*273 FILLER_0_14_34
*274 FILLER_0_14_341
*275 FILLER_0_14_37
*276 FILLER_0_15_124
*277 FILLER_0_15_128
*278 FILLER_0_15_136
*279 FILLER_0_15_142
*280 FILLER_0_15_144
*281 FILLER_0_15_164
*282 FILLER_0_15_2
*283 FILLER_0_15_212
*284 FILLER_0_15_216
*285 FILLER_0_15_218
*286 FILLER_0_15_254
*287 FILLER_0_15_258
*288 FILLER_0_15_274
*289 FILLER_0_15_278
*290 FILLER_0_15_282
*291 FILLER_0_15_314
*292 FILLER_0_15_322
*293 FILLER_0_15_66
*294 FILLER_0_15_72
*295 FILLER_0_15_88
*296 FILLER_0_15_92
*297 FILLER_0_15_94
*298 FILLER_0_16_101
*299 FILLER_0_16_107
*300 FILLER_0_16_137
*301 FILLER_0_16_151
*302 FILLER_0_16_173
*303 FILLER_0_16_183
*304 FILLER_0_16_187
*305 FILLER_0_16_204
*306 FILLER_0_16_220
*307 FILLER_0_16_241
*308 FILLER_0_16_247
*309 FILLER_0_16_28
*310 FILLER_0_16_311
*311 FILLER_0_16_317
*312 FILLER_0_16_32
*313 FILLER_0_16_321
*314 FILLER_0_16_34
*315 FILLER_0_16_37
*316 FILLER_0_17_125
*317 FILLER_0_17_129
*318 FILLER_0_17_137
*319 FILLER_0_17_139
*320 FILLER_0_17_142
*321 FILLER_0_17_146
*322 FILLER_0_17_163
*323 FILLER_0_17_195
*324 FILLER_0_17_2
*325 FILLER_0_17_203
*326 FILLER_0_17_207
*327 FILLER_0_17_209
*328 FILLER_0_17_212
*329 FILLER_0_17_276
*330 FILLER_0_17_282
*331 FILLER_0_17_346
*332 FILLER_0_17_348
*333 FILLER_0_17_66
*334 FILLER_0_17_72
*335 FILLER_0_17_88
*336 FILLER_0_18_101
*337 FILLER_0_18_113
*338 FILLER_0_18_135
*339 FILLER_0_18_143
*340 FILLER_0_18_157
*341 FILLER_0_18_173
*342 FILLER_0_18_183
*343 FILLER_0_18_2
*344 FILLER_0_18_215
*345 FILLER_0_18_223
*346 FILLER_0_18_233
*347 FILLER_0_18_241
*348 FILLER_0_18_247
*349 FILLER_0_18_311
*350 FILLER_0_18_317
*351 FILLER_0_18_34
*352 FILLER_0_18_37
*353 FILLER_0_19_131
*354 FILLER_0_19_135
*355 FILLER_0_19_139
*356 FILLER_0_19_142
*357 FILLER_0_19_152
*358 FILLER_0_19_156
*359 FILLER_0_19_163
*360 FILLER_0_19_165
*361 FILLER_0_19_199
*362 FILLER_0_19_2
*363 FILLER_0_19_207
*364 FILLER_0_19_209
*365 FILLER_0_19_212
*366 FILLER_0_19_216
*367 FILLER_0_19_246
*368 FILLER_0_19_250
*369 FILLER_0_19_266
*370 FILLER_0_19_274
*371 FILLER_0_19_278
*372 FILLER_0_19_282
*373 FILLER_0_19_314
*374 FILLER_0_19_322
*375 FILLER_0_19_66
*376 FILLER_0_19_72
*377 FILLER_0_19_88
*378 FILLER_0_19_96
*379 FILLER_0_1_136
*380 FILLER_0_1_142
*381 FILLER_0_1_158
*382 FILLER_0_1_162
*383 FILLER_0_1_189
*384 FILLER_0_1_2
*385 FILLER_0_1_205
*386 FILLER_0_1_209
*387 FILLER_0_1_212
*388 FILLER_0_1_276
*389 FILLER_0_1_282
*390 FILLER_0_1_346
*391 FILLER_0_1_348
*392 FILLER_0_1_66
*393 FILLER_0_1_72
*394 FILLER_0_20_101
*395 FILLER_0_20_107
*396 FILLER_0_20_123
*397 FILLER_0_20_127
*398 FILLER_0_20_129
*399 FILLER_0_20_136
*400 FILLER_0_20_153
*401 FILLER_0_20_173
*402 FILLER_0_20_2
*403 FILLER_0_20_210
*404 FILLER_0_20_214
*405 FILLER_0_20_222
*406 FILLER_0_20_228
*407 FILLER_0_20_237
*408 FILLER_0_20_244
*409 FILLER_0_20_247
*410 FILLER_0_20_311
*411 FILLER_0_20_317
*412 FILLER_0_20_321
*413 FILLER_0_20_34
*414 FILLER_0_20_37
*415 FILLER_0_21_104
*416 FILLER_0_21_120
*417 FILLER_0_21_124
*418 FILLER_0_21_139
*419 FILLER_0_21_148
*420 FILLER_0_21_2
*421 FILLER_0_21_217
*422 FILLER_0_21_254
*423 FILLER_0_21_258
*424 FILLER_0_21_274
*425 FILLER_0_21_278
*426 FILLER_0_21_282
*427 FILLER_0_21_314
*428 FILLER_0_21_322
*429 FILLER_0_21_66
*430 FILLER_0_21_72
*431 FILLER_0_22_104
*432 FILLER_0_22_107
*433 FILLER_0_22_192
*434 FILLER_0_22_194
*435 FILLER_0_22_2
*436 FILLER_0_22_263
*437 FILLER_0_22_295
*438 FILLER_0_22_311
*439 FILLER_0_22_317
*440 FILLER_0_22_34
*441 FILLER_0_22_37
*442 FILLER_0_22_69
*443 FILLER_0_22_85
*444 FILLER_0_22_93
*445 FILLER_0_22_97
*446 FILLER_0_23_133
*447 FILLER_0_23_137
*448 FILLER_0_23_139
*449 FILLER_0_23_142
*450 FILLER_0_23_150
*451 FILLER_0_23_152
*452 FILLER_0_23_182
*453 FILLER_0_23_190
*454 FILLER_0_23_2
*455 FILLER_0_23_208
*456 FILLER_0_23_212
*457 FILLER_0_23_220
*458 FILLER_0_23_222
*459 FILLER_0_23_260
*460 FILLER_0_23_276
*461 FILLER_0_23_282
*462 FILLER_0_23_314
*463 FILLER_0_23_322
*464 FILLER_0_23_66
*465 FILLER_0_23_72
*466 FILLER_0_23_80
*467 FILLER_0_23_84
*468 FILLER_0_24_101
*469 FILLER_0_24_107
*470 FILLER_0_24_121
*471 FILLER_0_24_125
*472 FILLER_0_24_134
*473 FILLER_0_24_142
*474 FILLER_0_24_146
*475 FILLER_0_24_159
*476 FILLER_0_24_166
*477 FILLER_0_24_174
*478 FILLER_0_24_190
*479 FILLER_0_24_2
*480 FILLER_0_24_206
*481 FILLER_0_24_214
*482 FILLER_0_24_227
*483 FILLER_0_24_235
*484 FILLER_0_24_237
*485 FILLER_0_24_244
*486 FILLER_0_24_247
*487 FILLER_0_24_249
*488 FILLER_0_24_256
*489 FILLER_0_24_288
*490 FILLER_0_24_304
*491 FILLER_0_24_312
*492 FILLER_0_24_314
*493 FILLER_0_24_317
*494 FILLER_0_24_321
*495 FILLER_0_24_34
*496 FILLER_0_24_37
*497 FILLER_0_25_136
*498 FILLER_0_25_142
*499 FILLER_0_25_146
*500 FILLER_0_25_158
*501 FILLER_0_25_160
*502 FILLER_0_25_2
*503 FILLER_0_25_241
*504 FILLER_0_25_245
*505 FILLER_0_25_277
*506 FILLER_0_25_279
*507 FILLER_0_25_282
*508 FILLER_0_25_314
*509 FILLER_0_25_322
*510 FILLER_0_25_66
*511 FILLER_0_25_72
*512 FILLER_0_25_88
*513 FILLER_0_25_92
*514 FILLER_0_26_101
*515 FILLER_0_26_113
*516 FILLER_0_26_121
*517 FILLER_0_26_125
*518 FILLER_0_26_127
*519 FILLER_0_26_164
*520 FILLER_0_26_168
*521 FILLER_0_26_172
*522 FILLER_0_26_174
*523 FILLER_0_26_177
*524 FILLER_0_26_188
*525 FILLER_0_26_201
*526 FILLER_0_26_240
*527 FILLER_0_26_244
*528 FILLER_0_26_247
*529 FILLER_0_26_28
*530 FILLER_0_26_311
*531 FILLER_0_26_317
*532 FILLER_0_26_32
*533 FILLER_0_26_321
*534 FILLER_0_26_34
*535 FILLER_0_26_37
*536 FILLER_0_27_136
*537 FILLER_0_27_142
*538 FILLER_0_27_2
*539 FILLER_0_27_206
*540 FILLER_0_27_220
*541 FILLER_0_27_252
*542 FILLER_0_27_268
*543 FILLER_0_27_276
*544 FILLER_0_27_282
*545 FILLER_0_27_314
*546 FILLER_0_27_322
*547 FILLER_0_27_66
*548 FILLER_0_27_72
*549 FILLER_0_28_101
*550 FILLER_0_28_107
*551 FILLER_0_28_123
*552 FILLER_0_28_129
*553 FILLER_0_28_137
*554 FILLER_0_28_140
*555 FILLER_0_28_142
*556 FILLER_0_28_151
*557 FILLER_0_28_167
*558 FILLER_0_28_177
*559 FILLER_0_28_2
*560 FILLER_0_28_241
*561 FILLER_0_28_247
*562 FILLER_0_28_311
*563 FILLER_0_28_317
*564 FILLER_0_28_34
*565 FILLER_0_28_37
*566 FILLER_0_29_104
*567 FILLER_0_29_108
*568 FILLER_0_29_138
*569 FILLER_0_29_142
*570 FILLER_0_29_153
*571 FILLER_0_29_157
*572 FILLER_0_29_165
*573 FILLER_0_29_173
*574 FILLER_0_29_177
*575 FILLER_0_29_184
*576 FILLER_0_29_192
*577 FILLER_0_29_194
*578 FILLER_0_29_2
*579 FILLER_0_29_203
*580 FILLER_0_29_209
*581 FILLER_0_29_217
*582 FILLER_0_29_249
*583 FILLER_0_29_265
*584 FILLER_0_29_273
*585 FILLER_0_29_277
*586 FILLER_0_29_279
*587 FILLER_0_29_282
*588 FILLER_0_29_346
*589 FILLER_0_29_348
*590 FILLER_0_29_66
*591 FILLER_0_29_72
*592 FILLER_0_2_101
*593 FILLER_0_2_107
*594 FILLER_0_2_123
*595 FILLER_0_2_131
*596 FILLER_0_2_159
*597 FILLER_0_2_177
*598 FILLER_0_2_2
*599 FILLER_0_2_241
*600 FILLER_0_2_247
*601 FILLER_0_2_311
*602 FILLER_0_2_317
*603 FILLER_0_2_34
*604 FILLER_0_2_37
*605 FILLER_0_30_101
*606 FILLER_0_30_107
*607 FILLER_0_30_115
*608 FILLER_0_30_190
*609 FILLER_0_30_2
*610 FILLER_0_30_221
*611 FILLER_0_30_225
*612 FILLER_0_30_241
*613 FILLER_0_30_247
*614 FILLER_0_30_311
*615 FILLER_0_30_317
*616 FILLER_0_30_34
*617 FILLER_0_30_37
*618 FILLER_0_31_104
*619 FILLER_0_31_120
*620 FILLER_0_31_128
*621 FILLER_0_31_132
*622 FILLER_0_31_138
*623 FILLER_0_31_142
*624 FILLER_0_31_146
*625 FILLER_0_31_2
*626 FILLER_0_31_217
*627 FILLER_0_31_221
*628 FILLER_0_31_253
*629 FILLER_0_31_269
*630 FILLER_0_31_277
*631 FILLER_0_31_279
*632 FILLER_0_31_282
*633 FILLER_0_31_346
*634 FILLER_0_31_348
*635 FILLER_0_31_66
*636 FILLER_0_31_72
*637 FILLER_0_32_101
*638 FILLER_0_32_107
*639 FILLER_0_32_171
*640 FILLER_0_32_177
*641 FILLER_0_32_2
*642 FILLER_0_32_241
*643 FILLER_0_32_247
*644 FILLER_0_32_311
*645 FILLER_0_32_317
*646 FILLER_0_32_34
*647 FILLER_0_32_37
*648 FILLER_0_33_136
*649 FILLER_0_33_142
*650 FILLER_0_33_2
*651 FILLER_0_33_206
*652 FILLER_0_33_212
*653 FILLER_0_33_276
*654 FILLER_0_33_282
*655 FILLER_0_33_346
*656 FILLER_0_33_348
*657 FILLER_0_33_66
*658 FILLER_0_33_72
*659 FILLER_0_34_101
*660 FILLER_0_34_107
*661 FILLER_0_34_171
*662 FILLER_0_34_177
*663 FILLER_0_34_2
*664 FILLER_0_34_241
*665 FILLER_0_34_247
*666 FILLER_0_34_311
*667 FILLER_0_34_317
*668 FILLER_0_34_34
*669 FILLER_0_34_37
*670 FILLER_0_35_136
*671 FILLER_0_35_142
*672 FILLER_0_35_2
*673 FILLER_0_35_206
*674 FILLER_0_35_212
*675 FILLER_0_35_276
*676 FILLER_0_35_282
*677 FILLER_0_35_346
*678 FILLER_0_35_348
*679 FILLER_0_35_66
*680 FILLER_0_35_72
*681 FILLER_0_36_101
*682 FILLER_0_36_107
*683 FILLER_0_36_171
*684 FILLER_0_36_177
*685 FILLER_0_36_2
*686 FILLER_0_36_241
*687 FILLER_0_36_247
*688 FILLER_0_36_311
*689 FILLER_0_36_317
*690 FILLER_0_36_34
*691 FILLER_0_36_37
*692 FILLER_0_37_136
*693 FILLER_0_37_142
*694 FILLER_0_37_2
*695 FILLER_0_37_206
*696 FILLER_0_37_212
*697 FILLER_0_37_276
*698 FILLER_0_37_282
*699 FILLER_0_37_346
*700 FILLER_0_37_348
*701 FILLER_0_37_66
*702 FILLER_0_37_72
*703 FILLER_0_38_101
*704 FILLER_0_38_107
*705 FILLER_0_38_171
*706 FILLER_0_38_177
*707 FILLER_0_38_2
*708 FILLER_0_38_241
*709 FILLER_0_38_247
*710 FILLER_0_38_311
*711 FILLER_0_38_317
*712 FILLER_0_38_34
*713 FILLER_0_38_37
*714 FILLER_0_39_136
*715 FILLER_0_39_142
*716 FILLER_0_39_2
*717 FILLER_0_39_206
*718 FILLER_0_39_212
*719 FILLER_0_39_276
*720 FILLER_0_39_282
*721 FILLER_0_39_346
*722 FILLER_0_39_348
*723 FILLER_0_39_66
*724 FILLER_0_39_72
*725 FILLER_0_3_136
*726 FILLER_0_3_142
*727 FILLER_0_3_2
*728 FILLER_0_3_206
*729 FILLER_0_3_212
*730 FILLER_0_3_276
*731 FILLER_0_3_282
*732 FILLER_0_3_346
*733 FILLER_0_3_348
*734 FILLER_0_3_66
*735 FILLER_0_3_72
*736 FILLER_0_40_101
*737 FILLER_0_40_107
*738 FILLER_0_40_171
*739 FILLER_0_40_177
*740 FILLER_0_40_2
*741 FILLER_0_40_241
*742 FILLER_0_40_247
*743 FILLER_0_40_311
*744 FILLER_0_40_317
*745 FILLER_0_40_34
*746 FILLER_0_40_37
*747 FILLER_0_41_136
*748 FILLER_0_41_142
*749 FILLER_0_41_2
*750 FILLER_0_41_206
*751 FILLER_0_41_212
*752 FILLER_0_41_276
*753 FILLER_0_41_282
*754 FILLER_0_41_346
*755 FILLER_0_41_348
*756 FILLER_0_41_66
*757 FILLER_0_41_72
*758 FILLER_0_42_101
*759 FILLER_0_42_107
*760 FILLER_0_42_165
*761 FILLER_0_42_173
*762 FILLER_0_42_177
*763 FILLER_0_42_2
*764 FILLER_0_42_241
*765 FILLER_0_42_247
*766 FILLER_0_42_311
*767 FILLER_0_42_317
*768 FILLER_0_42_34
*769 FILLER_0_42_37
*770 FILLER_0_43_136
*771 FILLER_0_43_142
*772 FILLER_0_43_150
*773 FILLER_0_43_154
*774 FILLER_0_43_2
*775 FILLER_0_43_207
*776 FILLER_0_43_209
*777 FILLER_0_43_212
*778 FILLER_0_43_216
*779 FILLER_0_43_243
*780 FILLER_0_43_275
*781 FILLER_0_43_279
*782 FILLER_0_43_282
*783 FILLER_0_43_346
*784 FILLER_0_43_348
*785 FILLER_0_43_66
*786 FILLER_0_43_72
*787 FILLER_0_44_104
*788 FILLER_0_44_138
*789 FILLER_0_44_142
*790 FILLER_0_44_172
*791 FILLER_0_44_176
*792 FILLER_0_44_2
*793 FILLER_0_44_206
*794 FILLER_0_44_210
*795 FILLER_0_44_237
*796 FILLER_0_44_240
*797 FILLER_0_44_245
*798 FILLER_0_44_261
*799 FILLER_0_44_269
*800 FILLER_0_44_271
*801 FILLER_0_44_274
*802 FILLER_0_44_308
*803 FILLER_0_44_342
*804 FILLER_0_44_346
*805 FILLER_0_44_348
*806 FILLER_0_44_36
*807 FILLER_0_44_70
*808 FILLER_0_4_101
*809 FILLER_0_4_107
*810 FILLER_0_4_171
*811 FILLER_0_4_177
*812 FILLER_0_4_2
*813 FILLER_0_4_241
*814 FILLER_0_4_247
*815 FILLER_0_4_311
*816 FILLER_0_4_317
*817 FILLER_0_4_34
*818 FILLER_0_4_37
*819 FILLER_0_5_136
*820 FILLER_0_5_142
*821 FILLER_0_5_2
*822 FILLER_0_5_206
*823 FILLER_0_5_212
*824 FILLER_0_5_276
*825 FILLER_0_5_282
*826 FILLER_0_5_346
*827 FILLER_0_5_348
*828 FILLER_0_5_66
*829 FILLER_0_5_72
*830 FILLER_0_6_101
*831 FILLER_0_6_107
*832 FILLER_0_6_171
*833 FILLER_0_6_177
*834 FILLER_0_6_2
*835 FILLER_0_6_241
*836 FILLER_0_6_247
*837 FILLER_0_6_311
*838 FILLER_0_6_317
*839 FILLER_0_6_34
*840 FILLER_0_6_37
*841 FILLER_0_7_136
*842 FILLER_0_7_142
*843 FILLER_0_7_2
*844 FILLER_0_7_206
*845 FILLER_0_7_212
*846 FILLER_0_7_276
*847 FILLER_0_7_282
*848 FILLER_0_7_346
*849 FILLER_0_7_348
*850 FILLER_0_7_66
*851 FILLER_0_7_72
*852 FILLER_0_8_101
*853 FILLER_0_8_107
*854 FILLER_0_8_171
*855 FILLER_0_8_177
*856 FILLER_0_8_2
*857 FILLER_0_8_241
*858 FILLER_0_8_247
*859 FILLER_0_8_311
*860 FILLER_0_8_317
*861 FILLER_0_8_34
*862 FILLER_0_8_37
*863 FILLER_0_9_136
*864 FILLER_0_9_142
*865 FILLER_0_9_2
*866 FILLER_0_9_206
*867 FILLER_0_9_212
*868 FILLER_0_9_276
*869 FILLER_0_9_282
*870 FILLER_0_9_346
*871 FILLER_0_9_348
*872 FILLER_0_9_66
*873 FILLER_0_9_72
*874 PHY_EDGE_ROW_0_Left_45
*875 PHY_EDGE_ROW_0_Right_0
*876 PHY_EDGE_ROW_10_Left_55
*877 PHY_EDGE_ROW_10_Right_10
*878 PHY_EDGE_ROW_11_Left_56
*879 PHY_EDGE_ROW_11_Right_11
*880 PHY_EDGE_ROW_12_Left_57
*881 PHY_EDGE_ROW_12_Right_12
*882 PHY_EDGE_ROW_13_Left_58
*883 PHY_EDGE_ROW_13_Right_13
*884 PHY_EDGE_ROW_14_Left_59
*885 PHY_EDGE_ROW_14_Right_14
*886 PHY_EDGE_ROW_15_Left_60
*887 PHY_EDGE_ROW_15_Right_15
*888 PHY_EDGE_ROW_16_Left_61
*889 PHY_EDGE_ROW_16_Right_16
*890 PHY_EDGE_ROW_17_Left_62
*891 PHY_EDGE_ROW_17_Right_17
*892 PHY_EDGE_ROW_18_Left_63
*893 PHY_EDGE_ROW_18_Right_18
*894 PHY_EDGE_ROW_19_Left_64
*895 PHY_EDGE_ROW_19_Right_19
*896 PHY_EDGE_ROW_1_Left_46
*897 PHY_EDGE_ROW_1_Right_1
*898 PHY_EDGE_ROW_20_Left_65
*899 PHY_EDGE_ROW_20_Right_20
*900 PHY_EDGE_ROW_21_Left_66
*901 PHY_EDGE_ROW_21_Right_21
*902 PHY_EDGE_ROW_22_Left_67
*903 PHY_EDGE_ROW_22_Right_22
*904 PHY_EDGE_ROW_23_Left_68
*905 PHY_EDGE_ROW_23_Right_23
*906 PHY_EDGE_ROW_24_Left_69
*907 PHY_EDGE_ROW_24_Right_24
*908 PHY_EDGE_ROW_25_Left_70
*909 PHY_EDGE_ROW_25_Right_25
*910 PHY_EDGE_ROW_26_Left_71
*911 PHY_EDGE_ROW_26_Right_26
*912 PHY_EDGE_ROW_27_Left_72
*913 PHY_EDGE_ROW_27_Right_27
*914 PHY_EDGE_ROW_28_Left_73
*915 PHY_EDGE_ROW_28_Right_28
*916 PHY_EDGE_ROW_29_Left_74
*917 PHY_EDGE_ROW_29_Right_29
*918 PHY_EDGE_ROW_2_Left_47
*919 PHY_EDGE_ROW_2_Right_2
*920 PHY_EDGE_ROW_30_Left_75
*921 PHY_EDGE_ROW_30_Right_30
*922 PHY_EDGE_ROW_31_Left_76
*923 PHY_EDGE_ROW_31_Right_31
*924 PHY_EDGE_ROW_32_Left_77
*925 PHY_EDGE_ROW_32_Right_32
*926 PHY_EDGE_ROW_33_Left_78
*927 PHY_EDGE_ROW_33_Right_33
*928 PHY_EDGE_ROW_34_Left_79
*929 PHY_EDGE_ROW_34_Right_34
*930 PHY_EDGE_ROW_35_Left_80
*931 PHY_EDGE_ROW_35_Right_35
*932 PHY_EDGE_ROW_36_Left_81
*933 PHY_EDGE_ROW_36_Right_36
*934 PHY_EDGE_ROW_37_Left_82
*935 PHY_EDGE_ROW_37_Right_37
*936 PHY_EDGE_ROW_38_Left_83
*937 PHY_EDGE_ROW_38_Right_38
*938 PHY_EDGE_ROW_39_Left_84
*939 PHY_EDGE_ROW_39_Right_39
*940 PHY_EDGE_ROW_3_Left_48
*941 PHY_EDGE_ROW_3_Right_3
*942 PHY_EDGE_ROW_40_Left_85
*943 PHY_EDGE_ROW_40_Right_40
*944 PHY_EDGE_ROW_41_Left_86
*945 PHY_EDGE_ROW_41_Right_41
*946 PHY_EDGE_ROW_42_Left_87
*947 PHY_EDGE_ROW_42_Right_42
*948 PHY_EDGE_ROW_43_Left_88
*949 PHY_EDGE_ROW_43_Right_43
*950 PHY_EDGE_ROW_44_Left_89
*951 PHY_EDGE_ROW_44_Right_44
*952 PHY_EDGE_ROW_4_Left_49
*953 PHY_EDGE_ROW_4_Right_4
*954 PHY_EDGE_ROW_5_Left_50
*955 PHY_EDGE_ROW_5_Right_5
*956 PHY_EDGE_ROW_6_Left_51
*957 PHY_EDGE_ROW_6_Right_6
*958 PHY_EDGE_ROW_7_Left_52
*959 PHY_EDGE_ROW_7_Right_7
*960 PHY_EDGE_ROW_8_Left_53
*961 PHY_EDGE_ROW_8_Right_8
*962 PHY_EDGE_ROW_9_Left_54
*963 PHY_EDGE_ROW_9_Right_9
*964 TAP_TAPCELL_ROW_0_90
*965 TAP_TAPCELL_ROW_0_91
*966 TAP_TAPCELL_ROW_0_92
*967 TAP_TAPCELL_ROW_0_93
*968 TAP_TAPCELL_ROW_0_94
*969 TAP_TAPCELL_ROW_0_95
*970 TAP_TAPCELL_ROW_0_96
*971 TAP_TAPCELL_ROW_0_97
*972 TAP_TAPCELL_ROW_0_98
*973 TAP_TAPCELL_ROW_0_99
*974 TAP_TAPCELL_ROW_10_140
*975 TAP_TAPCELL_ROW_10_141
*976 TAP_TAPCELL_ROW_10_142
*977 TAP_TAPCELL_ROW_10_143
*978 TAP_TAPCELL_ROW_10_144
*979 TAP_TAPCELL_ROW_11_145
*980 TAP_TAPCELL_ROW_11_146
*981 TAP_TAPCELL_ROW_11_147
*982 TAP_TAPCELL_ROW_11_148
*983 TAP_TAPCELL_ROW_12_149
*984 TAP_TAPCELL_ROW_12_150
*985 TAP_TAPCELL_ROW_12_151
*986 TAP_TAPCELL_ROW_12_152
*987 TAP_TAPCELL_ROW_12_153
*988 TAP_TAPCELL_ROW_13_154
*989 TAP_TAPCELL_ROW_13_155
*990 TAP_TAPCELL_ROW_13_156
*991 TAP_TAPCELL_ROW_13_157
*992 TAP_TAPCELL_ROW_14_158
*993 TAP_TAPCELL_ROW_14_159
*994 TAP_TAPCELL_ROW_14_160
*995 TAP_TAPCELL_ROW_14_161
*996 TAP_TAPCELL_ROW_14_162
*997 TAP_TAPCELL_ROW_15_163
*998 TAP_TAPCELL_ROW_15_164
*999 TAP_TAPCELL_ROW_15_165
*1000 TAP_TAPCELL_ROW_15_166
*1001 TAP_TAPCELL_ROW_16_167
*1002 TAP_TAPCELL_ROW_16_168
*1003 TAP_TAPCELL_ROW_16_169
*1004 TAP_TAPCELL_ROW_16_170
*1005 TAP_TAPCELL_ROW_16_171
*1006 TAP_TAPCELL_ROW_17_172
*1007 TAP_TAPCELL_ROW_17_173
*1008 TAP_TAPCELL_ROW_17_174
*1009 TAP_TAPCELL_ROW_17_175
*1010 TAP_TAPCELL_ROW_18_176
*1011 TAP_TAPCELL_ROW_18_177
*1012 TAP_TAPCELL_ROW_18_178
*1013 TAP_TAPCELL_ROW_18_179
*1014 TAP_TAPCELL_ROW_18_180
*1015 TAP_TAPCELL_ROW_19_181
*1016 TAP_TAPCELL_ROW_19_182
*1017 TAP_TAPCELL_ROW_19_183
*1018 TAP_TAPCELL_ROW_19_184
*1019 TAP_TAPCELL_ROW_1_100
*1020 TAP_TAPCELL_ROW_1_101
*1021 TAP_TAPCELL_ROW_1_102
*1022 TAP_TAPCELL_ROW_1_103
*1023 TAP_TAPCELL_ROW_20_185
*1024 TAP_TAPCELL_ROW_20_186
*1025 TAP_TAPCELL_ROW_20_187
*1026 TAP_TAPCELL_ROW_20_188
*1027 TAP_TAPCELL_ROW_20_189
*1028 TAP_TAPCELL_ROW_21_190
*1029 TAP_TAPCELL_ROW_21_191
*1030 TAP_TAPCELL_ROW_21_192
*1031 TAP_TAPCELL_ROW_21_193
*1032 TAP_TAPCELL_ROW_22_194
*1033 TAP_TAPCELL_ROW_22_195
*1034 TAP_TAPCELL_ROW_22_196
*1035 TAP_TAPCELL_ROW_22_197
*1036 TAP_TAPCELL_ROW_22_198
*1037 TAP_TAPCELL_ROW_23_199
*1038 TAP_TAPCELL_ROW_23_200
*1039 TAP_TAPCELL_ROW_23_201
*1040 TAP_TAPCELL_ROW_23_202
*1041 TAP_TAPCELL_ROW_24_203
*1042 TAP_TAPCELL_ROW_24_204
*1043 TAP_TAPCELL_ROW_24_205
*1044 TAP_TAPCELL_ROW_24_206
*1045 TAP_TAPCELL_ROW_24_207
*1046 TAP_TAPCELL_ROW_25_208
*1047 TAP_TAPCELL_ROW_25_209
*1048 TAP_TAPCELL_ROW_25_210
*1049 TAP_TAPCELL_ROW_25_211
*1050 TAP_TAPCELL_ROW_26_212
*1051 TAP_TAPCELL_ROW_26_213
*1052 TAP_TAPCELL_ROW_26_214
*1053 TAP_TAPCELL_ROW_26_215
*1054 TAP_TAPCELL_ROW_26_216
*1055 TAP_TAPCELL_ROW_27_217
*1056 TAP_TAPCELL_ROW_27_218
*1057 TAP_TAPCELL_ROW_27_219
*1058 TAP_TAPCELL_ROW_27_220
*1059 TAP_TAPCELL_ROW_28_221
*1060 TAP_TAPCELL_ROW_28_222
*1061 TAP_TAPCELL_ROW_28_223
*1062 TAP_TAPCELL_ROW_28_224
*1063 TAP_TAPCELL_ROW_28_225
*1064 TAP_TAPCELL_ROW_29_226
*1065 TAP_TAPCELL_ROW_29_227
*1066 TAP_TAPCELL_ROW_29_228
*1067 TAP_TAPCELL_ROW_29_229
*1068 TAP_TAPCELL_ROW_2_104
*1069 TAP_TAPCELL_ROW_2_105
*1070 TAP_TAPCELL_ROW_2_106
*1071 TAP_TAPCELL_ROW_2_107
*1072 TAP_TAPCELL_ROW_2_108
*1073 TAP_TAPCELL_ROW_30_230
*1074 TAP_TAPCELL_ROW_30_231
*1075 TAP_TAPCELL_ROW_30_232
*1076 TAP_TAPCELL_ROW_30_233
*1077 TAP_TAPCELL_ROW_30_234
*1078 TAP_TAPCELL_ROW_31_235
*1079 TAP_TAPCELL_ROW_31_236
*1080 TAP_TAPCELL_ROW_31_237
*1081 TAP_TAPCELL_ROW_31_238
*1082 TAP_TAPCELL_ROW_32_239
*1083 TAP_TAPCELL_ROW_32_240
*1084 TAP_TAPCELL_ROW_32_241
*1085 TAP_TAPCELL_ROW_32_242
*1086 TAP_TAPCELL_ROW_32_243
*1087 TAP_TAPCELL_ROW_33_244
*1088 TAP_TAPCELL_ROW_33_245
*1089 TAP_TAPCELL_ROW_33_246
*1090 TAP_TAPCELL_ROW_33_247
*1091 TAP_TAPCELL_ROW_34_248
*1092 TAP_TAPCELL_ROW_34_249
*1093 TAP_TAPCELL_ROW_34_250
*1094 TAP_TAPCELL_ROW_34_251
*1095 TAP_TAPCELL_ROW_34_252
*1096 TAP_TAPCELL_ROW_35_253
*1097 TAP_TAPCELL_ROW_35_254
*1098 TAP_TAPCELL_ROW_35_255
*1099 TAP_TAPCELL_ROW_35_256
*1100 TAP_TAPCELL_ROW_36_257
*1101 TAP_TAPCELL_ROW_36_258
*1102 TAP_TAPCELL_ROW_36_259
*1103 TAP_TAPCELL_ROW_36_260
*1104 TAP_TAPCELL_ROW_36_261
*1105 TAP_TAPCELL_ROW_37_262
*1106 TAP_TAPCELL_ROW_37_263
*1107 TAP_TAPCELL_ROW_37_264
*1108 TAP_TAPCELL_ROW_37_265
*1109 TAP_TAPCELL_ROW_38_266
*1110 TAP_TAPCELL_ROW_38_267
*1111 TAP_TAPCELL_ROW_38_268
*1112 TAP_TAPCELL_ROW_38_269
*1113 TAP_TAPCELL_ROW_38_270
*1114 TAP_TAPCELL_ROW_39_271
*1115 TAP_TAPCELL_ROW_39_272
*1116 TAP_TAPCELL_ROW_39_273
*1117 TAP_TAPCELL_ROW_39_274
*1118 TAP_TAPCELL_ROW_3_109
*1119 TAP_TAPCELL_ROW_3_110
*1120 TAP_TAPCELL_ROW_3_111
*1121 TAP_TAPCELL_ROW_3_112
*1122 TAP_TAPCELL_ROW_40_275
*1123 TAP_TAPCELL_ROW_40_276
*1124 TAP_TAPCELL_ROW_40_277
*1125 TAP_TAPCELL_ROW_40_278
*1126 TAP_TAPCELL_ROW_40_279
*1127 TAP_TAPCELL_ROW_41_280
*1128 TAP_TAPCELL_ROW_41_281
*1129 TAP_TAPCELL_ROW_41_282
*1130 TAP_TAPCELL_ROW_41_283
*1131 TAP_TAPCELL_ROW_42_284
*1132 TAP_TAPCELL_ROW_42_285
*1133 TAP_TAPCELL_ROW_42_286
*1134 TAP_TAPCELL_ROW_42_287
*1135 TAP_TAPCELL_ROW_42_288
*1136 TAP_TAPCELL_ROW_43_289
*1137 TAP_TAPCELL_ROW_43_290
*1138 TAP_TAPCELL_ROW_43_291
*1139 TAP_TAPCELL_ROW_43_292
*1140 TAP_TAPCELL_ROW_44_293
*1141 TAP_TAPCELL_ROW_44_294
*1142 TAP_TAPCELL_ROW_44_295
*1143 TAP_TAPCELL_ROW_44_296
*1144 TAP_TAPCELL_ROW_44_297
*1145 TAP_TAPCELL_ROW_44_298
*1146 TAP_TAPCELL_ROW_44_299
*1147 TAP_TAPCELL_ROW_44_300
*1148 TAP_TAPCELL_ROW_44_301
*1149 TAP_TAPCELL_ROW_44_302
*1150 TAP_TAPCELL_ROW_4_113
*1151 TAP_TAPCELL_ROW_4_114
*1152 TAP_TAPCELL_ROW_4_115
*1153 TAP_TAPCELL_ROW_4_116
*1154 TAP_TAPCELL_ROW_4_117
*1155 TAP_TAPCELL_ROW_5_118
*1156 TAP_TAPCELL_ROW_5_119
*1157 TAP_TAPCELL_ROW_5_120
*1158 TAP_TAPCELL_ROW_5_121
*1159 TAP_TAPCELL_ROW_6_122
*1160 TAP_TAPCELL_ROW_6_123
*1161 TAP_TAPCELL_ROW_6_124
*1162 TAP_TAPCELL_ROW_6_125
*1163 TAP_TAPCELL_ROW_6_126
*1164 TAP_TAPCELL_ROW_7_127
*1165 TAP_TAPCELL_ROW_7_128
*1166 TAP_TAPCELL_ROW_7_129
*1167 TAP_TAPCELL_ROW_7_130
*1168 TAP_TAPCELL_ROW_8_131
*1169 TAP_TAPCELL_ROW_8_132
*1170 TAP_TAPCELL_ROW_8_133
*1171 TAP_TAPCELL_ROW_8_134
*1172 TAP_TAPCELL_ROW_8_135
*1173 TAP_TAPCELL_ROW_9_136
*1174 TAP_TAPCELL_ROW_9_137
*1175 TAP_TAPCELL_ROW_9_138
*1176 TAP_TAPCELL_ROW_9_139
*1177 _101_
*1178 _102_
*1179 _103_
*1180 _104_
*1181 _105_
*1182 _106_
*1183 _107_
*1184 _108_
*1185 _109_
*1186 _110_
*1187 _111_
*1188 _112_
*1189 _113_
*1190 _114_
*1191 _115_
*1192 _116_
*1193 _117_
*1194 _118_
*1195 _119_
*1196 _120_
*1197 _121_
*1198 _122_
*1199 _123_
*1200 _124_
*1201 _125_
*1202 _126_
*1203 _127_
*1204 _128_
*1205 _129_
*1206 _130_
*1207 _131_
*1208 _132_
*1209 _133_
*1210 _134_
*1211 _135_
*1212 _136_
*1213 _137_
*1214 _138_
*1215 _139_
*1216 _140_
*1217 _141_
*1218 _142_
*1219 _143_
*1220 _144_
*1221 _145_
*1222 _146_
*1223 _147_
*1224 _148_
*1225 _149_
*1226 _150_
*1227 _151_
*1228 _152_
*1229 _153_
*1230 _154_
*1231 _155_
*1232 _156_
*1233 _157_
*1234 _158_
*1235 _159_
*1236 _160_
*1237 _161_
*1238 _162_
*1239 _163_
*1240 _164_
*1241 _165_
*1242 _166_
*1243 _167_
*1244 _168_
*1245 _169_
*1246 _170_
*1247 _171_
*1248 _172_
*1249 _173_
*1250 _174_
*1251 _175_
*1252 _176_
*1253 _177_
*1254 _178_
*1255 _179_
*1256 _180_
*1257 _181_
*1258 _182_
*1259 _183_
*1260 _184_
*1261 _185_
*1262 _186_
*1263 _187_
*1264 _188_
*1265 _189_
*1266 _190_
*1267 _191_
*1268 _192_
*1269 _193_
*1270 _194_
*1271 _195_
*1272 _196_
*1273 _197_
*1274 _198_
*1275 _199_
*1276 _200_
*1277 _201_
*1278 _202_
*1279 _203_
*1280 _204_
*1281 _205_
*1282 _206_
*1283 _207_
*1284 _208_
*1285 _209_
*1286 _210_
*1287 _211_
*1288 _212_
*1289 _213_
*1290 _214_
*1291 _215_
*1292 _216_
*1293 _217_
*1294 _218_
*1295 _219_
*1296 _220_
*1297 _221_
*1298 _222_
*1299 _223_
*1300 _224_
*1301 _225_
*1302 _226_
*1303 _227_
*1304 _230_
*1305 _231_
*1306 clkbuf_0_clk
*1307 clkbuf_1_0__f_clk
*1308 clkbuf_1_1__f_clk
*1309 ita7_25
*1310 ita7_26
*1311 output1
*1312 output10
*1313 output11
*1314 output12
*1315 output13
*1316 output14
*1317 output15
*1318 output16
*1319 output17
*1320 output18
*1321 output19
*1322 output2
*1323 output20
*1324 output21
*1325 output22
*1326 output23
*1327 output24
*1328 output3
*1329 output4
*1330 output5
*1331 output6
*1332 output7
*1333 output8
*1334 output9

*PORTS
clk I
segm[0] O
segm[10] O
segm[11] O
segm[12] O
segm[13] O
segm[1] O
segm[2] O
segm[3] O
segm[4] O
segm[5] O
segm[6] O
segm[7] O
segm[8] O
segm[9] O
sel[0] O
sel[10] O
sel[11] O
sel[1] O
sel[2] O
sel[3] O
sel[4] O
sel[5] O
sel[6] O
sel[7] O
sel[8] O
sel[9] O

*D_NET *1 0.0154447
*CONN
*P clk I
*I *1306:I I *D gf180mcu_fd_sc_mcu7t5v0__clkbuf_16
*I *188:I I *D gf180mcu_fd_sc_mcu7t5v0__antenna
*CAP
1 clk 0.00267207
2 *1306:I 0.000247879
3 *188:I 0
4 *1:17 0.00247805
5 *1:11 0.00490224
6 *1306:I *1275:C 0.000124313
7 *1306:I *101:38 9.30491e-05
8 *1:17 *1232:A1 9.68367e-05
9 *1:17 *1275:C 0.000229831
10 *1:17 *1281:D 0.000250522
11 *1:17 *101:27 8.12023e-06
12 *1:17 *101:38 4.34467e-06
13 *1:17 *107:14 0.00206657
14 *1:17 *107:25 0.000213322
15 *1:17 *115:10 0.00193734
16 *1:17 *132:180 3.41992e-05
17 *1:17 *136:14 8.59796e-05
*RES
1 clk *1:11 27.495 
2 *1:11 *1:17 28.8 
3 *1:17 *188:I 4.5 
4 *1:17 *1306:I 6.84 
*END

*D_NET *2 0.000660607
*CONN
*P segm[0] O
*I *1311:Z O *D gf180mcu_fd_sc_mcu7t5v0__buf_8
*CAP
1 segm[0] 0.00026368
2 *1311:Z 0.00026368
3 segm[0] segm[3] 6.66239e-05
4 segm[0] sel[5] 6.66239e-05
*RES
1 *1311:Z segm[0] 11.475 
*END

*D_NET *3 0.00223144
*CONN
*P segm[10] O
*I *1322:Z O *D gf180mcu_fd_sc_mcu7t5v0__buf_8
*CAP
1 segm[10] 0.00104634
2 *1322:Z 0.00104634
3 segm[10] sel[2] 0.00013875
*RES
1 *1322:Z segm[10] 21.375 
*END

*D_NET *4 0.00144223
*CONN
*P segm[11] O
*I *1328:Z O *D gf180mcu_fd_sc_mcu7t5v0__buf_8
*CAP
1 segm[11] 0.000651741
2 *1328:Z 0.000651741
3 segm[11] sel[11] 0.00013875
*RES
1 *1328:Z segm[11] 9.855 
*END

*D_NET *5 0.00222821
*CONN
*P segm[12] O
*I *1329:Z O *D gf180mcu_fd_sc_mcu7t5v0__buf_8
*CAP
1 segm[12] 0.0011141
2 *1329:Z 0.0011141
*RES
1 *1329:Z segm[12] 21.015 
*END

*D_NET *6 0.00263285
*CONN
*P segm[13] O
*I *1330:Z O *D gf180mcu_fd_sc_mcu7t5v0__buf_8
*CAP
1 segm[13] 0.00129653
2 *1330:Z 0.00129653
3 segm[13] *1330:I 3.97987e-05
*RES
1 *1330:Z segm[13] 22.815 
*END

*D_NET *7 0.000575303
*CONN
*P segm[1] O
*I *1309:ZN O *D gf180mcu_fd_sc_mcu7t5v0__tiel
*CAP
1 segm[1] 0.000262839
2 *1309:ZN 0.000262839
3 segm[1] segm[7] 4.96237e-05
*RES
1 *1309:ZN segm[1] 10.935 
*END

*D_NET *8 0.000766301
*CONN
*P segm[2] O
*I *1331:Z O *D gf180mcu_fd_sc_mcu7t5v0__buf_8
*CAP
1 segm[2] 0.000353676
2 *1331:Z 0.000353676
3 segm[2] segm[5] 5.89484e-05
*RES
1 *1331:Z segm[2] 11.475 
*END

*D_NET *9 0.000609413
*CONN
*P segm[3] O
*I *1332:Z O *D gf180mcu_fd_sc_mcu7t5v0__buf_8
*CAP
1 segm[3] 0.000271395
2 *1332:Z 0.000271395
3 segm[0] segm[3] 6.66239e-05
*RES