*SPEF "ieee 1481-1999"
*DESIGN "user_project_wrapper"
*DATE "11:11:11 Fri 11 11, 1111"
*VENDOR "OpenRCX"
*PROGRAM "Parallel Extraction"
*VERSION "1.0"
*DESIGN_FLOW "NAME_SCOPE LOCAL" "PIN_CAP NONE"
*DIVIDER /
*DELIMITER :
*BUS_DELIMITER []
*T_UNIT 1 NS
*C_UNIT 1 PF
*R_UNIT 1 OHM
*L_UNIT 1 HENRY

*NAME_MAP
*1 io_in[0]
*2 io_in[10]
*3 io_in[11]
*4 io_in[12]
*5 io_in[13]
*6 io_in[14]
*7 io_in[15]
*8 io_in[16]
*9 io_in[17]
*10 io_in[18]
*11 io_in[19]
*12 io_in[1]
*13 io_in[20]
*14 io_in[21]
*15 io_in[22]
*16 io_in[23]
*17 io_in[24]
*18 io_in[25]
*19 io_in[26]
*20 io_in[27]
*21 io_in[28]
*22 io_in[29]
*23 io_in[2]
*24 io_in[30]
*25 io_in[31]
*26 io_in[32]
*27 io_in[33]
*28 io_in[34]
*29 io_in[35]
*30 io_in[36]
*31 io_in[37]
*32 io_in[3]
*33 io_in[4]
*34 io_in[5]
*35 io_in[6]
*36 io_in[7]
*37 io_in[8]
*38 io_in[9]
*39 io_oeb[0]
*40 io_oeb[10]
*41 io_oeb[11]
*42 io_oeb[12]
*43 io_oeb[13]
*44 io_oeb[14]
*45 io_oeb[15]
*46 io_oeb[16]
*47 io_oeb[17]
*48 io_oeb[18]
*49 io_oeb[19]
*50 io_oeb[1]
*51 io_oeb[20]
*52 io_oeb[21]
*53 io_oeb[22]
*54 io_oeb[23]
*55 io_oeb[24]
*56 io_oeb[25]
*57 io_oeb[26]
*58 io_oeb[27]
*59 io_oeb[28]
*60 io_oeb[29]
*61 io_oeb[2]
*62 io_oeb[30]
*63 io_oeb[31]
*64 io_oeb[32]
*65 io_oeb[33]
*66 io_oeb[34]
*67 io_oeb[35]
*68 io_oeb[36]
*69 io_oeb[37]
*70 io_oeb[3]
*71 io_oeb[4]
*72 io_oeb[5]
*73 io_oeb[6]
*74 io_oeb[7]
*75 io_oeb[8]
*76 io_oeb[9]
*77 io_out[0]
*78 io_out[10]
*79 io_out[11]
*80 io_out[12]
*81 io_out[13]
*82 io_out[14]
*83 io_out[15]
*84 io_out[16]
*85 io_out[17]
*86 io_out[18]
*87 io_out[19]
*88 io_out[1]
*89 io_out[20]
*90 io_out[21]
*91 io_out[22]
*92 io_out[23]
*93 io_out[24]
*94 io_out[25]
*95 io_out[26]
*96 io_out[27]
*97 io_out[28]
*98 io_out[29]
*99 io_out[2]
*100 io_out[30]
*101 io_out[31]
*102 io_out[32]
*103 io_out[33]
*104 io_out[34]
*105 io_out[35]
*106 io_out[36]
*107 io_out[37]
*108 io_out[3]
*109 io_out[4]
*110 io_out[5]
*111 io_out[6]
*112 io_out[7]
*113 io_out[8]
*114 io_out[9]
*115 la_data_in[0]
*116 la_data_in[10]
*117 la_data_in[11]
*118 la_data_in[12]
*119 la_data_in[13]
*120 la_data_in[14]
*121 la_data_in[15]
*122 la_data_in[16]
*123 la_data_in[17]
*124 la_data_in[18]
*125 la_data_in[19]
*126 la_data_in[1]
*127 la_data_in[20]
*128 la_data_in[21]
*129 la_data_in[22]
*130 la_data_in[23]
*131 la_data_in[24]
*132 la_data_in[25]
*133 la_data_in[26]
*134 la_data_in[27]
*135 la_data_in[28]
*136 la_data_in[29]
*137 la_data_in[2]
*138 la_data_in[30]
*139 la_data_in[31]
*140 la_data_in[32]
*141 la_data_in[33]
*142 la_data_in[34]
*143 la_data_in[35]
*144 la_data_in[36]
*145 la_data_in[37]
*146 la_data_in[38]
*147 la_data_in[39]
*148 la_data_in[3]
*149 la_data_in[40]
*150 la_data_in[41]
*151 la_data_in[42]
*152 la_data_in[43]
*153 la_data_in[44]
*154 la_data_in[45]
*155 la_data_in[46]
*156 la_data_in[47]
*157 la_data_in[48]
*158 la_data_in[49]
*159 la_data_in[4]
*160 la_data_in[50]
*161 la_data_in[51]
*162 la_data_in[52]
*163 la_data_in[53]
*164 la_data_in[54]
*165 la_data_in[55]
*166 la_data_in[56]
*167 la_data_in[57]
*168 la_data_in[58]
*169 la_data_in[59]
*170 la_data_in[5]
*171 la_data_in[60]
*172 la_data_in[61]
*173 la_data_in[62]
*174 la_data_in[63]
*175 la_data_in[6]
*176 la_data_in[7]
*177 la_data_in[8]
*178 la_data_in[9]
*179 la_data_out[0]
*180 la_data_out[10]
*181 la_data_out[11]
*182 la_data_out[12]
*183 la_data_out[13]
*184 la_data_out[14]
*185 la_data_out[15]
*186 la_data_out[16]
*187 la_data_out[17]
*188 la_data_out[18]
*189 la_data_out[19]
*190 la_data_out[1]
*191 la_data_out[20]
*192 la_data_out[21]
*193 la_data_out[22]
*194 la_data_out[23]
*195 la_data_out[24]
*196 la_data_out[25]
*197 la_data_out[26]
*198 la_data_out[27]
*199 la_data_out[28]
*200 la_data_out[29]
*201 la_data_out[2]
*202 la_data_out[30]
*203 la_data_out[31]
*204 la_data_out[32]
*205 la_data_out[33]
*206 la_data_out[34]
*207 la_data_out[35]
*208 la_data_out[36]
*209 la_data_out[37]
*210 la_data_out[38]
*211 la_data_out[39]
*212 la_data_out[3]
*213 la_data_out[40]
*214 la_data_out[41]
*215 la_data_out[42]
*216 la_data_out[43]
*217 la_data_out[44]
*218 la_data_out[45]
*219 la_data_out[46]
*220 la_data_out[47]
*221 la_data_out[48]
*222 la_data_out[49]
*223 la_data_out[4]
*224 la_data_out[50]
*225 la_data_out[51]
*226 la_data_out[52]
*227 la_data_out[53]
*228 la_data_out[54]
*229 la_data_out[55]
*230 la_data_out[56]
*231 la_data_out[57]
*232 la_data_out[58]
*233 la_data_out[59]
*234 la_data_out[5]
*235 la_data_out[60]
*236 la_data_out[61]
*237 la_data_out[62]
*238 la_data_out[63]
*239 la_data_out[6]
*240 la_data_out[7]
*241 la_data_out[8]
*242 la_data_out[9]
*243 la_oenb[0]
*244 la_oenb[10]
*245 la_oenb[11]
*246 la_oenb[12]
*247 la_oenb[13]
*248 la_oenb[14]
*249 la_oenb[15]
*250 la_oenb[16]
*251 la_oenb[17]
*252 la_oenb[18]
*253 la_oenb[19]
*254 la_oenb[1]
*255 la_oenb[20]
*256 la_oenb[21]
*257 la_oenb[22]
*258 la_oenb[23]
*259 la_oenb[24]
*260 la_oenb[25]
*261 la_oenb[26]
*262 la_oenb[27]
*263 la_oenb[28]
*264 la_oenb[29]
*265 la_oenb[2]
*266 la_oenb[30]
*267 la_oenb[31]
*268 la_oenb[32]
*269 la_oenb[33]
*270 la_oenb[34]
*271 la_oenb[35]
*272 la_oenb[36]
*273 la_oenb[37]
*274 la_oenb[38]
*275 la_oenb[39]
*276 la_oenb[3]
*277 la_oenb[40]
*278 la_oenb[41]
*279 la_oenb[42]
*280 la_oenb[43]
*281 la_oenb[44]
*282 la_oenb[45]
*283 la_oenb[46]
*284 la_oenb[47]
*285 la_oenb[48]
*286 la_oenb[49]
*287 la_oenb[4]
*288 la_oenb[50]
*289 la_oenb[51]
*290 la_oenb[52]
*291 la_oenb[53]
*292 la_oenb[54]
*293 la_oenb[55]
*294 la_oenb[56]
*295 la_oenb[57]
*296 la_oenb[58]
*297 la_oenb[59]
*298 la_oenb[5]
*299 la_oenb[60]
*300 la_oenb[61]
*301 la_oenb[62]
*302 la_oenb[63]
*303 la_oenb[6]
*304 la_oenb[7]
*305 la_oenb[8]
*306 la_oenb[9]
*307 user_clock2
*308 user_irq[0]
*309 user_irq[1]
*310 user_irq[2]
*313 wb_clk_i
*314 wb_rst_i
*315 wbs_ack_o
*316 wbs_adr_i[0]
*317 wbs_adr_i[10]
*318 wbs_adr_i[11]
*319 wbs_adr_i[12]
*320 wbs_adr_i[13]
*321 wbs_adr_i[14]
*322 wbs_adr_i[15]
*323 wbs_adr_i[16]
*324 wbs_adr_i[17]
*325 wbs_adr_i[18]
*326 wbs_adr_i[19]
*327 wbs_adr_i[1]
*328 wbs_adr_i[20]
*329 wbs_adr_i[21]
*330 wbs_adr_i[22]
*331 wbs_adr_i[23]
*332 wbs_adr_i[24]
*333 wbs_adr_i[25]
*334 wbs_adr_i[26]
*335 wbs_adr_i[27]
*336 wbs_adr_i[28]
*337 wbs_adr_i[29]
*338 wbs_adr_i[2]
*339 wbs_adr_i[30]
*340 wbs_adr_i[31]
*341 wbs_adr_i[3]
*342 wbs_adr_i[4]
*343 wbs_adr_i[5]
*344 wbs_adr_i[6]
*345 wbs_adr_i[7]
*346 wbs_adr_i[8]
*347 wbs_adr_i[9]
*348 wbs_cyc_i
*349 wbs_dat_i[0]
*350 wbs_dat_i[10]
*351 wbs_dat_i[11]
*352 wbs_dat_i[12]
*353 wbs_dat_i[13]
*354 wbs_dat_i[14]
*355 wbs_dat_i[15]
*356 wbs_dat_i[16]
*357 wbs_dat_i[17]
*358 wbs_dat_i[18]
*359 wbs_dat_i[19]
*360 wbs_dat_i[1]
*361 wbs_dat_i[20]
*362 wbs_dat_i[21]
*363 wbs_dat_i[22]
*364 wbs_dat_i[23]
*365 wbs_dat_i[24]
*366 wbs_dat_i[25]
*367 wbs_dat_i[26]
*368 wbs_dat_i[27]
*369 wbs_dat_i[28]
*370 wbs_dat_i[29]
*371 wbs_dat_i[2]
*372 wbs_dat_i[30]
*373 wbs_dat_i[31]
*374 wbs_dat_i[3]
*375 wbs_dat_i[4]
*376 wbs_dat_i[5]
*377 wbs_dat_i[6]
*378 wbs_dat_i[7]
*379 wbs_dat_i[8]
*380 wbs_dat_i[9]
*381 wbs_dat_o[0]
*382 wbs_dat_o[10]
*383 wbs_dat_o[11]
*384 wbs_dat_o[12]
*385 wbs_dat_o[13]
*386 wbs_dat_o[14]
*387 wbs_dat_o[15]
*388 wbs_dat_o[16]
*389 wbs_dat_o[17]
*390 wbs_dat_o[18]
*391 wbs_dat_o[19]
*392 wbs_dat_o[1]
*393 wbs_dat_o[20]
*394 wbs_dat_o[21]
*395 wbs_dat_o[22]
*396 wbs_dat_o[23]
*397 wbs_dat_o[24]
*398 wbs_dat_o[25]
*399 wbs_dat_o[26]
*400 wbs_dat_o[27]
*401 wbs_dat_o[28]
*402 wbs_dat_o[29]
*403 wbs_dat_o[2]
*404 wbs_dat_o[30]
*405 wbs_dat_o[31]
*406 wbs_dat_o[3]
*407 wbs_dat_o[4]
*408 wbs_dat_o[5]
*409 wbs_dat_o[6]
*410 wbs_dat_o[7]
*411 wbs_dat_o[8]
*412 wbs_dat_o[9]
*413 wbs_sel_i[0]
*414 wbs_sel_i[1]
*415 wbs_sel_i[2]
*416 wbs_sel_i[3]
*417 wbs_stb_i
*418 wbs_we_i
*419 itasegm1\[0\]
*420 itasegm1\[100\]
*421 itasegm1\[101\]
*422 itasegm1\[102\]
*423 itasegm1\[103\]
*424 itasegm1\[104\]
*425 itasegm1\[105\]
*426 itasegm1\[106\]
*427 itasegm1\[107\]
*428 itasegm1\[108\]
*429 itasegm1\[109\]
*430 itasegm1\[10\]
*431 itasegm1\[110\]
*432 itasegm1\[111\]
*433 itasegm1\[112\]
*434 itasegm1\[113\]
*435 itasegm1\[114\]
*436 itasegm1\[115\]
*437 itasegm1\[116\]
*438 itasegm1\[117\]
*439 itasegm1\[118\]
*440 itasegm1\[119\]
*441 itasegm1\[11\]
*442 itasegm1\[120\]
*443 itasegm1\[121\]
*444 itasegm1\[122\]
*445 itasegm1\[123\]
*446 itasegm1\[124\]
*447 itasegm1\[125\]
*448 itasegm1\[126\]
*449 itasegm1\[127\]
*450 itasegm1\[128\]
*451 itasegm1\[129\]
*452 itasegm1\[12\]
*453 itasegm1\[130\]
*454 itasegm1\[131\]
*455 itasegm1\[132\]
*456 itasegm1\[133\]
*457 itasegm1\[134\]
*458 itasegm1\[135\]
*459 itasegm1\[136\]
*460 itasegm1\[137\]
*461 itasegm1\[138\]
*462 itasegm1\[139\]
*463 itasegm1\[13\]
*464 itasegm1\[140\]
*465 itasegm1\[141\]
*466 itasegm1\[142\]
*467 itasegm1\[143\]
*468 itasegm1\[144\]
*469 itasegm1\[145\]
*470 itasegm1\[146\]
*471 itasegm1\[147\]
*472 itasegm1\[148\]
*473 itasegm1\[149\]
*474 itasegm1\[14\]
*475 itasegm1\[150\]
*476 itasegm1\[151\]
*477 itasegm1\[152\]
*478 itasegm1\[153\]
*479 itasegm1\[154\]
*480 itasegm1\[155\]
*481 itasegm1\[156\]
*482 itasegm1\[157\]
*483 itasegm1\[158\]
*484 itasegm1\[159\]
*485 itasegm1\[15\]
*486 itasegm1\[160\]
*487 itasegm1\[161\]
*488 itasegm1\[162\]
*489 itasegm1\[163\]
*490 itasegm1\[164\]
*491 itasegm1\[165\]
*492 itasegm1\[166\]
*493 itasegm1\[167\]
*494 itasegm1\[168\]
*495 itasegm1\[169\]
*496 itasegm1\[16\]
*497 itasegm1\[170\]
*498 itasegm1\[171\]
*499 itasegm1\[172\]
*500 itasegm1\[173\]
*501 itasegm1\[174\]
*502 itasegm1\[175\]
*503 itasegm1\[176\]
*504 itasegm1\[177\]
*505 itasegm1\[178\]
*506 itasegm1\[179\]
*507 itasegm1\[17\]
*508 itasegm1\[180\]
*509 itasegm1\[181\]
*510 itasegm1\[182\]
*511 itasegm1\[183\]
*512 itasegm1\[184\]
*513 itasegm1\[185\]
*514 itasegm1\[186\]
*515 itasegm1\[187\]
*516 itasegm1\[188\]
*517 itasegm1\[189\]
*518 itasegm1\[18\]
*519 itasegm1\[190\]
*520 itasegm1\[191\]
*521 itasegm1\[192\]
*522 itasegm1\[193\]
*523 itasegm1\[194\]
*524 itasegm1\[195\]
*525 itasegm1\[196\]
*526 itasegm1\[197\]
*527 itasegm1\[198\]
*528 itasegm1\[199\]
*529 itasegm1\[19\]
*530 itasegm1\[1\]
*531 itasegm1\[200\]
*532 itasegm1\[201\]
*533 itasegm1\[202\]
*534 itasegm1\[203\]
*535 itasegm1\[204\]
*536 itasegm1\[205\]
*537 itasegm1\[206\]
*538 itasegm1\[207\]
*539 itasegm1\[208\]
*540 itasegm1\[209\]
*541 itasegm1\[20\]
*542 itasegm1\[210\]
*543 itasegm1\[211\]
*544 itasegm1\[212\]
*545 itasegm1\[213\]
*546 itasegm1\[214\]
*547 itasegm1\[215\]
*548 itasegm1\[216\]
*549 itasegm1\[217\]
*550 itasegm1\[218\]
*551 itasegm1\[219\]
*552 itasegm1\[21\]
*553 itasegm1\[220\]
*554 itasegm1\[221\]
*555 itasegm1\[222\]
*556 itasegm1\[223\]
*557 itasegm1\[224\]
*558 itasegm1\[225\]
*559 itasegm1\[226\]
*560 itasegm1\[227\]
*561 itasegm1\[228\]
*562 itasegm1\[229\]
*563 itasegm1\[22\]
*564 itasegm1\[230\]
*565 itasegm1\[231\]
*566 itasegm1\[232\]
*567 itasegm1\[233\]
*568 itasegm1\[234\]
*569 itasegm1\[235\]
*570 itasegm1\[236\]
*571 itasegm1\[237\]
*572 itasegm1\[238\]
*573 itasegm1\[239\]
*574 itasegm1\[23\]
*575 itasegm1\[240\]
*576 itasegm1\[241\]
*577 itasegm1\[242\]
*578 itasegm1\[243\]
*579 itasegm1\[244\]
*580 itasegm1\[245\]
*581 itasegm1\[246\]
*582 itasegm1\[247\]
*583 itasegm1\[248\]
*584 itasegm1\[249\]
*585 itasegm1\[24\]
*586 itasegm1\[250\]
*587 itasegm1\[251\]
*588 itasegm1\[252\]
*589 itasegm1\[253\]
*590 itasegm1\[254\]
*591 itasegm1\[255\]
*592 itasegm1\[256\]
*593 itasegm1\[257\]
*594 itasegm1\[258\]
*595 itasegm1\[259\]
*596 itasegm1\[25\]
*597 itasegm1\[260\]
*598 itasegm1\[261\]
*599 itasegm1\[262\]
*600 itasegm1\[263\]
*601 itasegm1\[264\]
*602 itasegm1\[265\]
*603 itasegm1\[266\]
*604 itasegm1\[267\]
*605 itasegm1\[268\]
*606 itasegm1\[269\]
*607 itasegm1\[26\]
*608 itasegm1\[270\]
*609 itasegm1\[271\]
*610 itasegm1\[272\]
*611 itasegm1\[273\]
*612 itasegm1\[274\]
*613 itasegm1\[275\]
*614 itasegm1\[276\]
*615 itasegm1\[277\]
*616 itasegm1\[278\]
*617 itasegm1\[279\]
*618 itasegm1\[27\]
*619 itasegm1\[280\]
*620 itasegm1\[281\]
*621 itasegm1\[282\]
*622 itasegm1\[283\]
*623 itasegm1\[284\]
*624 itasegm1\[285\]
*625 itasegm1\[286\]
*626 itasegm1\[287\]
*627 itasegm1\[288\]
*628 itasegm1\[289\]
*629 itasegm1\[28\]
*630 itasegm1\[290\]
*631 itasegm1\[291\]
*632 itasegm1\[292\]
*633 itasegm1\[293\]
*634 itasegm1\[294\]
*635 itasegm1\[295\]
*636 itasegm1\[296\]
*637 itasegm1\[297\]
*638 itasegm1\[298\]
*639 itasegm1\[299\]
*640 itasegm1\[29\]
*641 itasegm1\[2\]
*642 itasegm1\[300\]
*643 itasegm1\[301\]
*644 itasegm1\[302\]
*645 itasegm1\[303\]
*646 itasegm1\[304\]
*647 itasegm1\[305\]
*648 itasegm1\[306\]
*649 itasegm1\[307\]
*650 itasegm1\[308\]
*651 itasegm1\[309\]
*652 itasegm1\[30\]
*653 itasegm1\[310\]
*654 itasegm1\[311\]
*655 itasegm1\[312\]
*656 itasegm1\[313\]
*657 itasegm1\[314\]
*658 itasegm1\[315\]
*659 itasegm1\[316\]
*660 itasegm1\[317\]
*661 itasegm1\[318\]
*662 itasegm1\[319\]
*663 itasegm1\[31\]
*664 itasegm1\[320\]
*665 itasegm1\[321\]
*666 itasegm1\[322\]
*667 itasegm1\[323\]
*668 itasegm1\[324\]
*669 itasegm1\[325\]
*670 itasegm1\[326\]
*671 itasegm1\[327\]
*672 itasegm1\[328\]
*673 itasegm1\[329\]
*674 itasegm1\[32\]
*675 itasegm1\[330\]
*676 itasegm1\[331\]
*677 itasegm1\[332\]
*678 itasegm1\[333\]
*679 itasegm1\[334\]
*680 itasegm1\[335\]
*681 itasegm1\[336\]
*682 itasegm1\[337\]
*683 itasegm1\[338\]
*684 itasegm1\[339\]
*685 itasegm1\[33\]
*686 itasegm1\[340\]
*687 itasegm1\[341\]
*688 itasegm1\[342\]
*689 itasegm1\[343\]
*690 itasegm1\[344\]
*691 itasegm1\[345\]
*692 itasegm1\[346\]
*693 itasegm1\[347\]
*694 itasegm1\[348\]
*695 itasegm1\[349\]
*696 itasegm1\[34\]
*697 itasegm1\[350\]
*698 itasegm1\[351\]
*699 itasegm1\[352\]
*700 itasegm1\[353\]
*701 itasegm1\[354\]
*702 itasegm1\[355\]
*703 itasegm1\[356\]
*704 itasegm1\[357\]
*705 itasegm1\[358\]
*706 itasegm1\[359\]
*707 itasegm1\[35\]
*708 itasegm1\[360\]
*709 itasegm1\[361\]
*710 itasegm1\[362\]
*711 itasegm1\[363\]
*712 itasegm1\[364\]
*713 itasegm1\[365\]
*714 itasegm1\[366\]
*715 itasegm1\[367\]
*716 itasegm1\[368\]
*717 itasegm1\[369\]
*718 itasegm1\[36\]
*719 itasegm1\[370\]
*720 itasegm1\[371\]
*721 itasegm1\[372\]
*722 itasegm1\[373\]
*723 itasegm1\[374\]
*724 itasegm1\[375\]
*725 itasegm1\[376\]
*726 itasegm1\[377\]
*727 itasegm1\[378\]
*728 itasegm1\[379\]
*729 itasegm1\[37\]
*730 itasegm1\[380\]
*731 itasegm1\[381\]
*732 itasegm1\[382\]
*733 itasegm1\[383\]
*734 itasegm1\[384\]
*735 itasegm1\[385\]
*736 itasegm1\[386\]
*737 itasegm1\[387\]
*738 itasegm1\[388\]
*739 itasegm1\[389\]
*740 itasegm1\[38\]
*741 itasegm1\[390\]
*742 itasegm1\[391\]
*743 itasegm1\[392\]
*744 itasegm1\[393\]
*745 itasegm1\[394\]
*746 itasegm1\[395\]
*747 itasegm1\[396\]
*748 itasegm1\[397\]
*749 itasegm1\[398\]
*750 itasegm1\[399\]
*751 itasegm1\[39\]
*752 itasegm1\[3\]
*753 itasegm1\[400\]
*754 itasegm1\[401\]
*755 itasegm1\[402\]
*756 itasegm1\[403\]
*757 itasegm1\[404\]
*758 itasegm1\[405\]
*759 itasegm1\[406\]
*760 itasegm1\[407\]
*761 itasegm1\[408\]
*762 itasegm1\[409\]
*763 itasegm1\[40\]
*764 itasegm1\[410\]
*765 itasegm1\[411\]
*766 itasegm1\[412\]
*767 itasegm1\[413\]
*768 itasegm1\[414\]
*769 itasegm1\[415\]
*770 itasegm1\[416\]
*771 itasegm1\[417\]
*772 itasegm1\[418\]
*773 itasegm1\[419\]
*774 itasegm1\[41\]
*775 itasegm1\[420\]
*776 itasegm1\[421\]
*777 itasegm1\[422\]
*778 itasegm1\[423\]
*779 itasegm1\[424\]
*780 itasegm1\[425\]
*781 itasegm1\[426\]
*782 itasegm1\[427\]
*783 itasegm1\[428\]
*784 itasegm1\[429\]
*785 itasegm1\[42\]
*786 itasegm1\[430\]
*787 itasegm1\[431\]
*788 itasegm1\[432\]
*789 itasegm1\[433\]
*790 itasegm1\[434\]
*791 itasegm1\[435\]
*792 itasegm1\[436\]
*793 itasegm1\[437\]
*794 itasegm1\[438\]
*795 itasegm1\[439\]
*796 itasegm1\[43\]
*797 itasegm1\[440\]
*798 itasegm1\[441\]
*799 itasegm1\[442\]
*800 itasegm1\[443\]
*801 itasegm1\[444\]
*802 itasegm1\[445\]
*803 itasegm1\[446\]
*804 itasegm1\[447\]
*805 itasegm1\[448\]
*806 itasegm1\[449\]
*807 itasegm1\[44\]
*808 itasegm1\[450\]
*809 itasegm1\[451\]
*810 itasegm1\[452\]
*811 itasegm1\[453\]
*812 itasegm1\[454\]
*813 itasegm1\[455\]
*814 itasegm1\[456\]
*815 itasegm1\[457\]
*816 itasegm1\[458\]
*817 itasegm1\[459\]
*818 itasegm1\[45\]
*819 itasegm1\[460\]
*820 itasegm1\[461\]
*821 itasegm1\[462\]
*822 itasegm1\[463\]
*823 itasegm1\[464\]
*824 itasegm1\[465\]
*825 itasegm1\[466\]
*826 itasegm1\[467\]
*827 itasegm1\[468\]
*828 itasegm1\[469\]
*829 itasegm1\[46\]
*830 itasegm1\[470\]
*831 itasegm1\[471\]
*832 itasegm1\[472\]
*833 itasegm1\[473\]
*834 itasegm1\[474\]
*835 itasegm1\[475\]
*836 itasegm1\[476\]
*837 itasegm1\[477\]
*838 itasegm1\[478\]
*839 itasegm1\[479\]
*840 itasegm1\[47\]
*841 itasegm1\[480\]
*842 itasegm1\[481\]
*843 itasegm1\[482\]
*844 itasegm1\[483\]
*845 itasegm1\[484\]
*846 itasegm1\[485\]
*847 itasegm1\[486\]
*848 itasegm1\[487\]
*849 itasegm1\[488\]
*850 itasegm1\[489\]
*851 itasegm1\[48\]
*852 itasegm1\[490\]
*853 itasegm1\[491\]
*854 itasegm1\[492\]
*855 itasegm1\[493\]
*856 itasegm1\[494\]
*857 itasegm1\[495\]
*858 itasegm1\[496\]
*859 itasegm1\[497\]
*860 itasegm1\[498\]
*861 itasegm1\[499\]
*862 itasegm1\[49\]
*863 itasegm1\[4\]
*864 itasegm1\[500\]
*865 itasegm1\[501\]
*866 itasegm1\[502\]
*867 itasegm1\[503\]
*868 itasegm1\[504\]
*869 itasegm1\[505\]
*870 itasegm1\[506\]
*871 itasegm1\[507\]
*872 itasegm1\[508\]
*873 itasegm1\[509\]
*874 itasegm1\[50\]
*875 itasegm1\[510\]
*876 itasegm1\[511\]
*877 itasegm1\[512\]
*878 itasegm1\[513\]
*879 itasegm1\[514\]
*880 itasegm1\[515\]
*881 itasegm1\[516\]
*882 itasegm1\[517\]
*883 itasegm1\[518\]
*884 itasegm1\[519\]
*885 itasegm1\[51\]
*886 itasegm1\[520\]
*887 itasegm1\[521\]
*888 itasegm1\[522\]
*889 itasegm1\[523\]
*890 itasegm1\[524\]
*891 itasegm1\[525\]
*892 itasegm1\[526\]
*893 itasegm1\[527\]
*894 itasegm1\[528\]
*895 itasegm1\[529\]
*896 itasegm1\[52\]
*897 itasegm1\[530\]
*898 itasegm1\[531\]
*899 itasegm1\[532\]
*900 itasegm1\[533\]
*901 itasegm1\[534\]
*902 itasegm1\[535\]
*903 itasegm1\[536\]
*904 itasegm1\[537\]
*905 itasegm1\[538\]
*906 itasegm1\[539\]
*907 itasegm1\[53\]
*908 itasegm1\[540\]
*909 itasegm1\[541\]
*910 itasegm1\[542\]
*911 itasegm1\[543\]
*912 itasegm1\[544\]
*913 itasegm1\[545\]
*914 itasegm1\[546\]
*915 itasegm1\[547\]
*916 itasegm1\[548\]
*917 itasegm1\[549\]
*918 itasegm1\[54\]
*919 itasegm1\[550\]
*920 itasegm1\[551\]
*921 itasegm1\[552\]
*922 itasegm1\[553\]
*923 itasegm1\[554\]
*924 itasegm1\[555\]
*925 itasegm1\[556\]
*926 itasegm1\[557\]
*927 itasegm1\[558\]
*928 itasegm1\[559\]
*929 itasegm1\[55\]
*930 itasegm1\[560\]
*931 itasegm1\[561\]
*932 itasegm1\[562\]
*933 itasegm1\[563\]
*934 itasegm1\[564\]
*935 itasegm1\[565\]
*936 itasegm1\[566\]
*937 itasegm1\[567\]
*938 itasegm1\[568\]
*939 itasegm1\[569\]
*940 itasegm1\[56\]
*941 itasegm1\[570\]
*942 itasegm1\[571\]
*943 itasegm1\[572\]
*944 itasegm1\[573\]
*945 itasegm1\[574\]
*946 itasegm1\[575\]
*947 itasegm1\[576\]
*948 itasegm1\[577\]
*949 itasegm1\[578\]
*950 itasegm1\[579\]
*951 itasegm1\[57\]
*952 itasegm1\[580\]
*953 itasegm1\[581\]
*954 itasegm1\[582\]
*955 itasegm1\[583\]
*956 itasegm1\[584\]
*957 itasegm1\[585\]
*958 itasegm1\[586\]
*959 itasegm1\[587\]
*960 itasegm1\[588\]
*961 itasegm1\[589\]
*962 itasegm1\[58\]
*963 itasegm1\[590\]
*964 itasegm1\[591\]
*965 itasegm1\[592\]
*966 itasegm1\[593\]
*967 itasegm1\[594\]
*968 itasegm1\[595\]
*969 itasegm1\[596\]
*970 itasegm1\[597\]
*971 itasegm1\[598\]
*972 itasegm1\[599\]
*973 itasegm1\[59\]
*974 itasegm1\[5\]
*975 itasegm1\[600\]
*976 itasegm1\[601\]
*977 itasegm1\[602\]
*978 itasegm1\[603\]
*979 itasegm1\[604\]
*980 itasegm1\[605\]
*981 itasegm1\[606\]
*982 itasegm1\[607\]
*983 itasegm1\[608\]
*984 itasegm1\[609\]
*985 itasegm1\[60\]
*986 itasegm1\[610\]
*987 itasegm1\[611\]
*988 itasegm1\[612\]
*989 itasegm1\[613\]
*990 itasegm1\[614\]
*991 itasegm1\[615\]
*992 itasegm1\[616\]
*993 itasegm1\[617\]
*994 itasegm1\[618\]
*995 itasegm1\[619\]
*996 itasegm1\[61\]
*997 itasegm1\[620\]
*998 itasegm1\[621\]
*999 itasegm1\[622\]
*1000 itasegm1\[623\]
*1001 itasegm1\[624\]
*1002 itasegm1\[625\]
*1003 itasegm1\[626\]
*1004 itasegm1\[627\]
*1005 itasegm1\[628\]
*1006 itasegm1\[629\]
*1007 itasegm1\[62\]
*1008 itasegm1\[630\]
*1009 itasegm1\[631\]
*1010 itasegm1\[632\]
*1011 itasegm1\[633\]
*1012 itasegm1\[634\]
*1013 itasegm1\[635\]
*1014 itasegm1\[636\]
*1015 itasegm1\[637\]
*1016 itasegm1\[638\]
*1017 itasegm1\[639\]
*1018 itasegm1\[63\]
*1019 itasegm1\[640\]
*1020 itasegm1\[641\]
*1021 itasegm1\[642\]
*1022 itasegm1\[643\]
*1023 itasegm1\[644\]
*1024 itasegm1\[645\]
*1025 itasegm1\[646\]
*1026 itasegm1\[647\]
*1027 itasegm1\[648\]
*1028 itasegm1\[649\]
*1029 itasegm1\[64\]
*1030 itasegm1\[650\]
*1031 itasegm1\[651\]
*1032 itasegm1\[652\]
*1033 itasegm1\[653\]
*1034 itasegm1\[654\]
*1035 itasegm1\[655\]
*1036 itasegm1\[656\]
*1037 itasegm1\[657\]
*1038 itasegm1\[658\]
*1039 itasegm1\[659\]
*1040 itasegm1\[65\]
*1041 itasegm1\[660\]
*1042 itasegm1\[661\]
*1043 itasegm1\[662\]
*1044 itasegm1\[663\]
*1045 itasegm1\[664\]
*1046 itasegm1\[665\]
*1047 itasegm1\[666\]
*1048 itasegm1\[667\]
*1049 itasegm1\[668\]
*1050 itasegm1\[669\]
*1051 itasegm1\[66\]
*1052 itasegm1\[670\]
*1053 itasegm1\[671\]
*1054 itasegm1\[672\]
*1055 itasegm1\[673\]
*1056 itasegm1\[674\]
*1057 itasegm1\[675\]
*1058 itasegm1\[676\]
*1059 itasegm1\[677\]
*1060 itasegm1\[678\]
*1061 itasegm1\[679\]
*1062 itasegm1\[67\]
*1063 itasegm1\[680\]
*1064 itasegm1\[681\]
*1065 itasegm1\[682\]
*1066 itasegm1\[683\]
*1067 itasegm1\[684\]
*1068 itasegm1\[685\]
*1069 itasegm1\[686\]
*1070 itasegm1\[687\]
*1071 itasegm1\[688\]
*1072 itasegm1\[689\]
*1073 itasegm1\[68\]
*1074 itasegm1\[690\]
*1075 itasegm1\[691\]
*1076 itasegm1\[692\]
*1077 itasegm1\[693\]
*1078 itasegm1\[694\]
*1079 itasegm1\[695\]
*1080 itasegm1\[696\]
*1081 itasegm1\[697\]
*1082 itasegm1\[698\]
*1083 itasegm1\[699\]
*1084 itasegm1\[69\]
*1085 itasegm1\[6\]
*1086 itasegm1\[700\]
*1087 itasegm1\[701\]
*1088 itasegm1\[702\]
*1089 itasegm1\[703\]
*1090 itasegm1\[704\]
*1091 itasegm1\[705\]
*1092 itasegm1\[706\]
*1093 itasegm1\[707\]
*1094 itasegm1\[708\]
*1095 itasegm1\[709\]
*1096 itasegm1\[70\]
*1097 itasegm1\[710\]
*1098 itasegm1\[711\]
*1099 itasegm1\[712\]
*1100 itasegm1\[713\]
*1101 itasegm1\[714\]
*1102 itasegm1\[715\]
*1103 itasegm1\[716\]
*1104 itasegm1\[717\]
*1105 itasegm1\[718\]
*1106 itasegm1\[719\]
*1107 itasegm1\[71\]
*1108 itasegm1\[720\]
*1109 itasegm1\[721\]
*1110 itasegm1\[722\]
*1111 itasegm1\[723\]
*1112 itasegm1\[724\]
*1113 itasegm1\[725\]
*1114 itasegm1\[726\]
*1115 itasegm1\[727\]
*1116 itasegm1\[728\]
*1117 itasegm1\[729\]
*1118 itasegm1\[72\]
*1119 itasegm1\[730\]
*1120 itasegm1\[731\]
*1121 itasegm1\[732\]
*1122 itasegm1\[733\]
*1123 itasegm1\[734\]
*1124 itasegm1\[735\]
*1125 itasegm1\[736\]
*1126 itasegm1\[737\]
*1127 itasegm1\[738\]
*1128 itasegm1\[739\]
*1129 itasegm1\[73\]
*1130 itasegm1\[740\]
*1131 itasegm1\[741\]
*1132 itasegm1\[742\]
*1133 itasegm1\[743\]
*1134 itasegm1\[744\]
*1135 itasegm1\[745\]
*1136 itasegm1\[746\]
*1137 itasegm1\[747\]
*1138 itasegm1\[748\]
*1139 itasegm1\[749\]
*1140 itasegm1\[74\]
*1141 itasegm1\[750\]
*1142 itasegm1\[751\]
*1143 itasegm1\[752\]
*1144 itasegm1\[753\]
*1145 itasegm1\[754\]
*1146 itasegm1\[755\]
*1147 itasegm1\[756\]
*1148 itasegm1\[757\]
*1149 itasegm1\[758\]
*1150 itasegm1\[759\]
*1151 itasegm1\[75\]
*1152 itasegm1\[760\]
*1153 itasegm1\[761\]
*1154 itasegm1\[762\]
*1155 itasegm1\[763\]
*1156 itasegm1\[764\]
*1157 itasegm1\[765\]
*1158 itasegm1\[766\]
*1159 itasegm1\[767\]
*1160 itasegm1\[768\]
*1161 itasegm1\[769\]
*1162 itasegm1\[76\]
*1163 itasegm1\[770\]
*1164 itasegm1\[771\]
*1165 itasegm1\[772\]
*1166 itasegm1\[773\]
*1167 itasegm1\[774\]
*1168 itasegm1\[775\]
*1169 itasegm1\[776\]
*1170 itasegm1\[777\]
*1171 itasegm1\[778\]
*1172 itasegm1\[779\]
*1173 itasegm1\[77\]
*1174 itasegm1\[780\]
*1175 itasegm1\[781\]
*1176 itasegm1\[782\]
*1177 itasegm1\[783\]
*1178 itasegm1\[784\]
*1179 itasegm1\[785\]
*1180 itasegm1\[786\]
*1181 itasegm1\[787\]
*1182 itasegm1\[788\]
*1183 itasegm1\[789\]
*1184 itasegm1\[78\]
*1185 itasegm1\[790\]
*1186 itasegm1\[791\]
*1187 itasegm1\[792\]
*1188 itasegm1\[793\]
*1189 itasegm1\[794\]
*1190 itasegm1\[795\]
*1191 itasegm1\[796\]
*1192 itasegm1\[797\]
*1193 itasegm1\[798\]
*1194 itasegm1\[799\]
*1195 itasegm1\[79\]
*1196 itasegm1\[7\]
*1197 itasegm1\[800\]
*1198 itasegm1\[801\]
*1199 itasegm1\[802\]
*1200 itasegm1\[803\]
*1201 itasegm1\[804\]
*1202 itasegm1\[805\]
*1203 itasegm1\[806\]
*1204 itasegm1\[807\]
*1205 itasegm1\[808\]
*1206 itasegm1\[809\]
*1207 itasegm1\[80\]
*1208 itasegm1\[810\]
*1209 itasegm1\[811\]
*1210 itasegm1\[812\]
*1211 itasegm1\[813\]
*1212 itasegm1\[814\]
*1213 itasegm1\[815\]
*1214 itasegm1\[816\]
*1215 itasegm1\[817\]
*1216 itasegm1\[818\]
*1217 itasegm1\[819\]
*1218 itasegm1\[81\]
*1219 itasegm1\[820\]
*1220 itasegm1\[821\]
*1221 itasegm1\[822\]
*1222 itasegm1\[823\]
*1223 itasegm1\[824\]
*1224 itasegm1\[825\]
*1225 itasegm1\[826\]
*1226 itasegm1\[827\]
*1227 itasegm1\[828\]
*1228 itasegm1\[829\]
*1229 itasegm1\[82\]
*1230 itasegm1\[830\]
*1231 itasegm1\[831\]
*1232 itasegm1\[832\]
*1233 itasegm1\[833\]
*1234 itasegm1\[834\]
*1235 itasegm1\[835\]
*1236 itasegm1\[836\]
*1237 itasegm1\[837\]
*1238 itasegm1\[838\]
*1239 itasegm1\[839\]
*1240 itasegm1\[83\]
*1241 itasegm1\[840\]
*1242 itasegm1\[841\]
*1243 itasegm1\[842\]
*1244 itasegm1\[843\]
*1245 itasegm1\[844\]
*1246 itasegm1\[845\]
*1247 itasegm1\[846\]
*1248 itasegm1\[847\]
*1249 itasegm1\[848\]
*1250 itasegm1\[849\]
*1251 itasegm1\[84\]
*1252 itasegm1\[850\]
*1253 itasegm1\[851\]
*1254 itasegm1\[852\]
*1255 itasegm1\[853\]
*1256 itasegm1\[854\]
*1257 itasegm1\[855\]
*1258 itasegm1\[856\]
*1259 itasegm1\[857\]
*1260 itasegm1\[858\]
*1261 itasegm1\[859\]
*1262 itasegm1\[85\]
*1263 itasegm1\[860\]
*1264 itasegm1\[861\]
*1265 itasegm1\[862\]
*1266 itasegm1\[863\]
*1267 itasegm1\[864\]
*1268 itasegm1\[865\]
*1269 itasegm1\[866\]
*1270 itasegm1\[867\]
*1271 itasegm1\[868\]
*1272 itasegm1\[869\]
*1273 itasegm1\[86\]
*1274 itasegm1\[870\]
*1275 itasegm1\[871\]
*1276 itasegm1\[872\]
*1277 itasegm1\[873\]
*1278 itasegm1\[874\]
*1279 itasegm1\[875\]
*1280 itasegm1\[876\]
*1281 itasegm1\[877\]
*1282 itasegm1\[878\]
*1283 itasegm1\[879\]
*1284 itasegm1\[87\]
*1285 itasegm1\[880\]
*1286 itasegm1\[881\]
*1287 itasegm1\[882\]
*1288 itasegm1\[883\]
*1289 itasegm1\[884\]
*1290 itasegm1\[885\]
*1291 itasegm1\[886\]
*1292 itasegm1\[887\]
*1293 itasegm1\[888\]
*1294 itasegm1\[889\]
*1295 itasegm1\[88\]
*1296 itasegm1\[890\]
*1297 itasegm1\[891\]
*1298 itasegm1\[892\]
*1299 itasegm1\[893\]
*1300 itasegm1\[894\]
*1301 itasegm1\[895\]
*1302 itasegm1\[89\]
*1303 itasegm1\[8\]
*1304 itasegm1\[90\]
*1305 itasegm1\[91\]
*1306 itasegm1\[92\]
*1307 itasegm1\[93\]
*1308 itasegm1\[94\]
*1309 itasegm1\[95\]
*1310 itasegm1\[96\]
*1311 itasegm1\[97\]
*1312 itasegm1\[98\]
*1313 itasegm1\[99\]
*1314 itasegm1\[9\]
*1315 itasel1\[0\]
*1316 itasel1\[100\]
*1317 itasel1\[101\]
*1318 itasel1\[102\]
*1319 itasel1\[103\]
*1320 itasel1\[104\]
*1321 itasel1\[105\]
*1322 itasel1\[106\]
*1323 itasel1\[107\]
*1324 itasel1\[108\]
*1325 itasel1\[109\]
*1326 itasel1\[10\]
*1327 itasel1\[110\]
*1328 itasel1\[111\]
*1329 itasel1\[112\]
*1330 itasel1\[113\]
*1331 itasel1\[114\]
*1332 itasel1\[115\]
*1333 itasel1\[116\]
*1334 itasel1\[117\]
*1335 itasel1\[118\]
*1336 itasel1\[119\]
*1337 itasel1\[11\]
*1338 itasel1\[120\]
*1339 itasel1\[121\]
*1340 itasel1\[122\]
*1341 itasel1\[123\]
*1342 itasel1\[124\]
*1343 itasel1\[125\]
*1344 itasel1\[126\]
*1345 itasel1\[127\]
*1346 itasel1\[128\]
*1347 itasel1\[129\]
*1348 itasel1\[12\]
*1349 itasel1\[130\]
*1350 itasel1\[131\]
*1351 itasel1\[132\]
*1352 itasel1\[133\]
*1353 itasel1\[134\]
*1354 itasel1\[135\]
*1355 itasel1\[136\]
*1356 itasel1\[137\]
*1357 itasel1\[138\]
*1358 itasel1\[139\]
*1359 itasel1\[13\]
*1360 itasel1\[140\]
*1361 itasel1\[141\]
*1362 itasel1\[142\]
*1363 itasel1\[143\]
*1364 itasel1\[144\]
*1365 itasel1\[145\]
*1366 itasel1\[146\]
*1367 itasel1\[147\]
*1368 itasel1\[148\]
*1369 itasel1\[149\]
*1370 itasel1\[14\]
*1371 itasel1\[150\]
*1372 itasel1\[151\]
*1373 itasel1\[152\]
*1374 itasel1\[153\]
*1375 itasel1\[154\]
*1376 itasel1\[155\]
*1377 itasel1\[156\]
*1378 itasel1\[157\]
*1379 itasel1\[158\]
*1380 itasel1\[159\]
*1381 itasel1\[15\]
*1382 itasel1\[160\]
*1383 itasel1\[161\]
*1384 itasel1\[162\]
*1385 itasel1\[163\]
*1386 itasel1\[164\]
*1387 itasel1\[165\]
*1388 itasel1\[166\]
*1389 itasel1\[167\]
*1390 itasel1\[168\]
*1391 itasel1\[169\]
*1392 itasel1\[16\]
*1393 itasel1\[170\]
*1394 itasel1\[171\]
*1395 itasel1\[172\]
*1396 itasel1\[173\]
*1397 itasel1\[174\]
*1398 itasel1\[175\]
*1399 itasel1\[176\]
*1400 itasel1\[177\]
*1401 itasel1\[178\]
*1402 itasel1\[179\]
*1403 itasel1\[17\]
*1404 itasel1\[180\]
*1405 itasel1\[181\]
*1406 itasel1\[182\]
*1407 itasel1\[183\]
*1408 itasel1\[184\]
*1409 itasel1\[185\]
*1410 itasel1\[186\]
*1411 itasel1\[187\]
*1412 itasel1\[188\]
*1413 itasel1\[189\]
*1414 itasel1\[18\]
*1415 itasel1\[190\]
*1416 itasel1\[191\]
*1417 itasel1\[192\]
*1418 itasel1\[193\]
*1419 itasel1\[194\]
*1420 itasel1\[195\]
*1421 itasel1\[196\]
*1422 itasel1\[197\]
*1423 itasel1\[198\]
*1424 itasel1\[199\]
*1425 itasel1\[19\]
*1426 itasel1\[1\]
*1427 itasel1\[200\]
*1428 itasel1\[201\]
*1429 itasel1\[202\]
*1430 itasel1\[203\]
*1431 itasel1\[204\]
*1432 itasel1\[205\]
*1433 itasel1\[206\]
*1434 itasel1\[207\]
*1435 itasel1\[208\]
*1436 itasel1\[209\]
*1437 itasel1\[20\]
*1438 itasel1\[210\]
*1439 itasel1\[211\]
*1440 itasel1\[212\]
*1441 itasel1\[213\]
*1442 itasel1\[214\]
*1443 itasel1\[215\]
*1444 itasel1\[216\]
*1445 itasel1\[217\]
*1446 itasel1\[218\]
*1447 itasel1\[219\]
*1448 itasel1\[21\]
*1449 itasel1\[220\]
*1450 itasel1\[221\]
*1451 itasel1\[222\]
*1452 itasel1\[223\]
*1453 itasel1\[224\]
*1454 itasel1\[225\]
*1455 itasel1\[226\]
*1456 itasel1\[227\]
*1457 itasel1\[228\]
*1458 itasel1\[229\]
*1459 itasel1\[22\]
*1460 itasel1\[230\]
*1461 itasel1\[231\]
*1462 itasel1\[232\]
*1463 itasel1\[233\]
*1464 itasel1\[234\]
*1465 itasel1\[235\]
*1466 itasel1\[236\]
*1467 itasel1\[237\]
*1468 itasel1\[238\]
*1469 itasel1\[239\]
*1470 itasel1\[23\]
*1471 itasel1\[240\]
*1472 itasel1\[241\]
*1473 itasel1\[242\]