*SPEF "ieee 1481-1999"
*DESIGN "ita14"
*DATE "11:11:11 Fri 11 11, 1111"
*VENDOR "OpenRCX"
*PROGRAM "Parallel Extraction"
*VERSION "1.0"
*DESIGN_FLOW "NAME_SCOPE LOCAL" "PIN_CAP NONE"
*DIVIDER /
*DELIMITER :
*BUS_DELIMITER []
*T_UNIT 1 NS
*C_UNIT 1 PF
*R_UNIT 1 OHM
*L_UNIT 1 HENRY

*NAME_MAP
*1 clk
*2 net26
*3 segm[10]
*4 segm[11]
*5 segm[12]
*6 segm[13]
*7 segm[1]
*8 segm[2]
*9 net27
*10 segm[4]
*11 segm[5]
*12 segm[6]
*13 segm[7]
*14 segm[8]
*15 segm[9]
*16 sel[0]
*17 sel[10]
*18 sel[11]
*19 sel[1]
*20 sel[2]
*21 sel[3]
*22 sel[4]
*23 sel[5]
*24 sel[6]
*25 sel[7]
*26 sel[8]
*27 sel[9]
*30 _000_
*31 _001_
*32 _002_
*33 _003_
*34 _004_
*35 _005_
*36 _006_
*37 _007_
*38 _008_
*39 _009_
*40 _010_
*41 _011_
*42 _012_
*43 _013_
*44 _014_
*45 _015_
*46 _016_
*47 _017_
*48 _018_
*49 _019_
*50 _020_
*51 _021_
*52 _022_
*53 _023_
*54 _024_
*55 _025_
*56 _026_
*57 _027_
*58 _028_
*59 _029_
*60 _030_
*61 _031_
*62 _032_
*63 _033_
*64 _034_
*65 _035_
*66 _036_
*67 _037_
*68 _038_
*69 _039_
*70 _040_
*71 _041_
*72 _042_
*73 _043_
*74 _044_
*75 _045_
*76 _046_
*77 _047_
*78 _048_
*79 _049_
*80 _050_
*81 _051_
*82 _052_
*83 _053_
*84 _054_
*85 _055_
*86 _056_
*87 _057_
*88 _058_
*89 _059_
*90 _060_
*91 _061_
*92 _062_
*93 _063_
*94 _064_
*95 _065_
*96 _066_
*97 _067_
*98 clknet_0_clk
*99 clknet_1_0__leaf_clk
*100 clknet_1_1__leaf_clk
*101 dut14\.count\[0\]
*102 dut14\.count\[1\]
*103 dut14\.count\[2\]
*104 dut14\.count\[3\]
*105 net1
*106 net10
*107 net11
*108 net12
*109 net13
*110 net14
*111 net15
*112 net16
*113 net17
*114 net18
*115 net19
*116 net2
*117 net20
*118 net21
*119 net22
*120 net23
*121 net24
*122 net25
*123 net3
*124 net4
*125 net5
*126 net6
*127 net7
*128 net8
*129 net9
*130 ANTENNA_clkbuf_0_clk_I
*131 FILLER_0_0_104
*132 FILLER_0_0_108
*133 FILLER_0_0_164
*134 FILLER_0_0_168
*135 FILLER_0_0_172
*136 FILLER_0_0_176
*137 FILLER_0_0_2
*138 FILLER_0_0_206
*139 FILLER_0_0_210
*140 FILLER_0_0_237
*141 FILLER_0_0_240
*142 FILLER_0_0_256
*143 FILLER_0_0_258
*144 FILLER_0_0_263
*145 FILLER_0_0_271
*146 FILLER_0_0_274
*147 FILLER_0_0_308
*148 FILLER_0_0_342
*149 FILLER_0_0_346
*150 FILLER_0_0_348
*151 FILLER_0_0_36
*152 FILLER_0_0_52
*153 FILLER_0_0_60
*154 FILLER_0_0_65
*155 FILLER_0_0_67
*156 FILLER_0_0_70
*157 FILLER_0_10_101
*158 FILLER_0_10_107
*159 FILLER_0_10_171
*160 FILLER_0_10_177
*161 FILLER_0_10_2
*162 FILLER_0_10_241
*163 FILLER_0_10_247
*164 FILLER_0_10_311
*165 FILLER_0_10_317
*166 FILLER_0_10_34
*167 FILLER_0_10_37
*168 FILLER_0_11_136
*169 FILLER_0_11_142
*170 FILLER_0_11_2
*171 FILLER_0_11_206
*172 FILLER_0_11_212
*173 FILLER_0_11_276
*174 FILLER_0_11_282
*175 FILLER_0_11_346
*176 FILLER_0_11_348
*177 FILLER_0_11_66
*178 FILLER_0_11_72
*179 FILLER_0_12_101
*180 FILLER_0_12_107
*181 FILLER_0_12_171
*182 FILLER_0_12_177
*183 FILLER_0_12_2
*184 FILLER_0_12_241
*185 FILLER_0_12_247
*186 FILLER_0_12_311
*187 FILLER_0_12_317
*188 FILLER_0_12_34
*189 FILLER_0_12_37
*190 FILLER_0_13_136
*191 FILLER_0_13_142
*192 FILLER_0_13_150
*193 FILLER_0_13_154
*194 FILLER_0_13_156
*195 FILLER_0_13_186
*196 FILLER_0_13_2
*197 FILLER_0_13_202
*198 FILLER_0_13_212
*199 FILLER_0_13_276
*200 FILLER_0_13_282
*201 FILLER_0_13_346
*202 FILLER_0_13_348
*203 FILLER_0_13_66
*204 FILLER_0_13_72
*205 FILLER_0_14_101
*206 FILLER_0_14_107
*207 FILLER_0_14_171
*208 FILLER_0_14_177
*209 FILLER_0_14_193
*210 FILLER_0_14_2
*211 FILLER_0_14_224
*212 FILLER_0_14_240
*213 FILLER_0_14_244
*214 FILLER_0_14_247
*215 FILLER_0_14_311
*216 FILLER_0_14_317
*217 FILLER_0_14_34
*218 FILLER_0_14_37
*219 FILLER_0_15_104
*220 FILLER_0_15_112
*221 FILLER_0_15_116
*222 FILLER_0_15_135
*223 FILLER_0_15_139
*224 FILLER_0_15_142
*225 FILLER_0_15_150
*226 FILLER_0_15_186
*227 FILLER_0_15_2
*228 FILLER_0_15_202
*229 FILLER_0_15_212
*230 FILLER_0_15_214
*231 FILLER_0_15_221
*232 FILLER_0_15_253
*233 FILLER_0_15_269
*234 FILLER_0_15_277
*235 FILLER_0_15_279
*236 FILLER_0_15_282
*237 FILLER_0_15_346
*238 FILLER_0_15_348
*239 FILLER_0_15_66
*240 FILLER_0_15_72
*241 FILLER_0_16_101
*242 FILLER_0_16_141
*243 FILLER_0_16_157
*244 FILLER_0_16_161
*245 FILLER_0_16_172
*246 FILLER_0_16_174
*247 FILLER_0_16_185
*248 FILLER_0_16_193
*249 FILLER_0_16_195
*250 FILLER_0_16_2
*251 FILLER_0_16_225
*252 FILLER_0_16_241
*253 FILLER_0_16_247
*254 FILLER_0_16_311
*255 FILLER_0_16_317
*256 FILLER_0_16_321
*257 FILLER_0_16_34
*258 FILLER_0_16_37
*259 FILLER_0_17_104
*260 FILLER_0_17_108
*261 FILLER_0_17_110
*262 FILLER_0_17_150
*263 FILLER_0_17_158
*264 FILLER_0_17_173
*265 FILLER_0_17_189
*266 FILLER_0_17_207
*267 FILLER_0_17_209
*268 FILLER_0_17_212
*269 FILLER_0_17_220
*270 FILLER_0_17_227
*271 FILLER_0_17_259
*272 FILLER_0_17_275
*273 FILLER_0_17_279
*274 FILLER_0_17_28
*275 FILLER_0_17_282
*276 FILLER_0_17_314
*277 FILLER_0_17_322
*278 FILLER_0_17_60
*279 FILLER_0_17_68
*280 FILLER_0_17_72
*281 FILLER_0_18_101
*282 FILLER_0_18_107
*283 FILLER_0_18_123
*284 FILLER_0_18_139
*285 FILLER_0_18_173
*286 FILLER_0_18_183
*287 FILLER_0_18_199
*288 FILLER_0_18_2
*289 FILLER_0_18_201
*290 FILLER_0_18_217
*291 FILLER_0_18_233
*292 FILLER_0_18_241
*293 FILLER_0_18_247
*294 FILLER_0_18_311
*295 FILLER_0_18_317
*296 FILLER_0_18_321
*297 FILLER_0_18_34
*298 FILLER_0_18_37
*299 FILLER_0_19_127
*300 FILLER_0_19_135
*301 FILLER_0_19_139
*302 FILLER_0_19_142
*303 FILLER_0_19_149
*304 FILLER_0_19_157
*305 FILLER_0_19_188
*306 FILLER_0_19_2
*307 FILLER_0_19_204
*308 FILLER_0_19_208
*309 FILLER_0_19_218
*310 FILLER_0_19_222
*311 FILLER_0_19_229
*312 FILLER_0_19_237
*313 FILLER_0_19_241
*314 FILLER_0_19_248
*315 FILLER_0_19_282
*316 FILLER_0_19_314
*317 FILLER_0_19_322
*318 FILLER_0_19_66
*319 FILLER_0_19_72
*320 FILLER_0_19_88
*321 FILLER_0_19_96
*322 FILLER_0_1_136
*323 FILLER_0_1_142
*324 FILLER_0_1_158
*325 FILLER_0_1_166
*326 FILLER_0_1_168
*327 FILLER_0_1_195
*328 FILLER_0_1_2
*329 FILLER_0_1_203
*330 FILLER_0_1_207
*331 FILLER_0_1_209
*332 FILLER_0_1_212
*333 FILLER_0_1_276
*334 FILLER_0_1_282
*335 FILLER_0_1_346
*336 FILLER_0_1_348
*337 FILLER_0_1_66
*338 FILLER_0_1_72
*339 FILLER_0_20_101
*340 FILLER_0_20_107
*341 FILLER_0_20_123
*342 FILLER_0_20_125
*343 FILLER_0_20_139
*344 FILLER_0_20_147
*345 FILLER_0_20_193
*346 FILLER_0_20_209
*347 FILLER_0_20_213
*348 FILLER_0_20_253
*349 FILLER_0_20_28
*350 FILLER_0_20_285
*351 FILLER_0_20_301
*352 FILLER_0_20_309
*353 FILLER_0_20_313
*354 FILLER_0_20_317
*355 FILLER_0_20_32
*356 FILLER_0_20_321
*357 FILLER_0_20_34
*358 FILLER_0_20_37
*359 FILLER_0_21_124
*360 FILLER_0_21_126
*361 FILLER_0_21_142
*362 FILLER_0_21_146
*363 FILLER_0_21_148
*364 FILLER_0_21_2
*365 FILLER_0_21_209
*366 FILLER_0_21_212
*367 FILLER_0_21_243
*368 FILLER_0_21_275
*369 FILLER_0_21_279
*370 FILLER_0_21_282
*371 FILLER_0_21_314
*372 FILLER_0_21_322
*373 FILLER_0_21_66
*374 FILLER_0_21_72
*375 FILLER_0_21_88
*376 FILLER_0_21_92
*377 FILLER_0_21_94
*378 FILLER_0_22_101
*379 FILLER_0_22_107
*380 FILLER_0_22_109
*381 FILLER_0_22_177
*382 FILLER_0_22_179
*383 FILLER_0_22_188
*384 FILLER_0_22_2
*385 FILLER_0_22_244
*386 FILLER_0_22_247
*387 FILLER_0_22_311
*388 FILLER_0_22_317
*389 FILLER_0_22_321
*390 FILLER_0_22_34
*391 FILLER_0_22_37
*392 FILLER_0_23_126
*393 FILLER_0_23_137
*394 FILLER_0_23_139
*395 FILLER_0_23_150
*396 FILLER_0_23_212
*397 FILLER_0_23_216
*398 FILLER_0_23_218
*399 FILLER_0_23_224
*400 FILLER_0_23_231
*401 FILLER_0_23_263
*402 FILLER_0_23_279
*403 FILLER_0_23_28
*404 FILLER_0_23_282
*405 FILLER_0_23_314
*406 FILLER_0_23_322
*407 FILLER_0_23_60
*408 FILLER_0_23_68
*409 FILLER_0_23_72
*410 FILLER_0_23_88
*411 FILLER_0_23_96
*412 FILLER_0_24_101
*413 FILLER_0_24_107
*414 FILLER_0_24_115
*415 FILLER_0_24_117
*416 FILLER_0_24_139
*417 FILLER_0_24_151
*418 FILLER_0_24_159
*419 FILLER_0_24_161
*420 FILLER_0_24_170
*421 FILLER_0_24_174
*422 FILLER_0_24_182
*423 FILLER_0_24_189
*424 FILLER_0_24_2
*425 FILLER_0_24_221
*426 FILLER_0_24_237
*427 FILLER_0_24_247
*428 FILLER_0_24_311
*429 FILLER_0_24_317
*430 FILLER_0_24_34
*431 FILLER_0_24_37
*432 FILLER_0_25_104
*433 FILLER_0_25_120
*434 FILLER_0_25_128
*435 FILLER_0_25_132
*436 FILLER_0_25_139
*437 FILLER_0_25_146
*438 FILLER_0_25_162
*439 FILLER_0_25_170
*440 FILLER_0_25_174
*441 FILLER_0_25_181
*442 FILLER_0_25_197
*443 FILLER_0_25_2
*444 FILLER_0_25_205
*445 FILLER_0_25_209
*446 FILLER_0_25_212
*447 FILLER_0_25_221
*448 FILLER_0_25_228
*449 FILLER_0_25_260
*450 FILLER_0_25_276
*451 FILLER_0_25_282
*452 FILLER_0_25_346
*453 FILLER_0_25_348
*454 FILLER_0_25_66
*455 FILLER_0_25_72
*456 FILLER_0_26_101
*457 FILLER_0_26_107
*458 FILLER_0_26_123
*459 FILLER_0_26_160
*460 FILLER_0_26_168
*461 FILLER_0_26_172
*462 FILLER_0_26_174
*463 FILLER_0_26_177
*464 FILLER_0_26_185
*465 FILLER_0_26_187
*466 FILLER_0_26_196
*467 FILLER_0_26_2
*468 FILLER_0_26_241
*469 FILLER_0_26_247
*470 FILLER_0_26_311
*471 FILLER_0_26_317
*472 FILLER_0_26_321
*473 FILLER_0_26_34
*474 FILLER_0_26_37
*475 FILLER_0_27_104
*476 FILLER_0_27_108
*477 FILLER_0_27_138
*478 FILLER_0_27_142
*479 FILLER_0_27_152
*480 FILLER_0_27_164
*481 FILLER_0_27_168
*482 FILLER_0_27_170
*483 FILLER_0_27_2
*484 FILLER_0_27_205
*485 FILLER_0_27_209
*486 FILLER_0_27_241
*487 FILLER_0_27_273
*488 FILLER_0_27_277
*489 FILLER_0_27_279
*490 FILLER_0_27_282
*491 FILLER_0_27_314
*492 FILLER_0_27_322
*493 FILLER_0_27_66
*494 FILLER_0_27_72
*495 FILLER_0_28_101
*496 FILLER_0_28_107
*497 FILLER_0_28_123
*498 FILLER_0_28_131
*499 FILLER_0_28_137
*500 FILLER_0_28_174
*501 FILLER_0_28_177
*502 FILLER_0_28_2
*503 FILLER_0_28_210
*504 FILLER_0_28_218
*505 FILLER_0_28_220
*506 FILLER_0_28_226
*507 FILLER_0_28_242
*508 FILLER_0_28_244
*509 FILLER_0_28_247
*510 FILLER_0_28_311
*511 FILLER_0_28_317
*512 FILLER_0_28_34
*513 FILLER_0_28_37
*514 FILLER_0_29_136
*515 FILLER_0_29_142
*516 FILLER_0_29_150
*517 FILLER_0_29_154
*518 FILLER_0_29_161
*519 FILLER_0_29_174
*520 FILLER_0_29_178
*521 FILLER_0_29_188
*522 FILLER_0_29_194
*523 FILLER_0_29_2
*524 FILLER_0_29_212
*525 FILLER_0_29_276
*526 FILLER_0_29_282
*527 FILLER_0_29_346
*528 FILLER_0_29_348
*529 FILLER_0_29_66
*530 FILLER_0_29_72
*531 FILLER_0_2_101
*532 FILLER_0_2_107
*533 FILLER_0_2_123
*534 FILLER_0_2_153
*535 FILLER_0_2_169
*536 FILLER_0_2_173
*537 FILLER_0_2_177
*538 FILLER_0_2_2
*539 FILLER_0_2_241
*540 FILLER_0_2_247
*541 FILLER_0_2_311
*542 FILLER_0_2_317
*543 FILLER_0_2_34
*544 FILLER_0_2_37
*545 FILLER_0_30_101
*546 FILLER_0_30_107
*547 FILLER_0_30_171
*548 FILLER_0_30_177
*549 FILLER_0_30_2
*550 FILLER_0_30_241
*551 FILLER_0_30_247
*552 FILLER_0_30_311
*553 FILLER_0_30_317
*554 FILLER_0_30_34
*555 FILLER_0_30_37
*556 FILLER_0_31_136
*557 FILLER_0_31_142
*558 FILLER_0_31_2
*559 FILLER_0_31_206
*560 FILLER_0_31_212
*561 FILLER_0_31_276
*562 FILLER_0_31_282
*563 FILLER_0_31_346
*564 FILLER_0_31_348
*565 FILLER_0_31_66
*566 FILLER_0_31_72
*567 FILLER_0_32_101
*568 FILLER_0_32_107
*569 FILLER_0_32_171
*570 FILLER_0_32_177
*571 FILLER_0_32_2
*572 FILLER_0_32_241
*573 FILLER_0_32_247
*574 FILLER_0_32_311
*575 FILLER_0_32_317
*576 FILLER_0_32_34
*577 FILLER_0_32_37
*578 FILLER_0_33_136
*579 FILLER_0_33_142
*580 FILLER_0_33_2
*581 FILLER_0_33_206
*582 FILLER_0_33_212
*583 FILLER_0_33_276
*584 FILLER_0_33_282
*585 FILLER_0_33_346
*586 FILLER_0_33_348
*587 FILLER_0_33_66
*588 FILLER_0_33_72
*589 FILLER_0_34_101
*590 FILLER_0_34_107
*591 FILLER_0_34_171
*592 FILLER_0_34_177
*593 FILLER_0_34_2
*594 FILLER_0_34_241
*595 FILLER_0_34_247
*596 FILLER_0_34_311
*597 FILLER_0_34_317
*598 FILLER_0_34_34
*599 FILLER_0_34_37
*600 FILLER_0_35_136
*601 FILLER_0_35_142
*602 FILLER_0_35_2
*603 FILLER_0_35_206
*604 FILLER_0_35_212
*605 FILLER_0_35_276
*606 FILLER_0_35_282
*607 FILLER_0_35_346
*608 FILLER_0_35_348
*609 FILLER_0_35_66
*610 FILLER_0_35_72
*611 FILLER_0_36_101
*612 FILLER_0_36_107
*613 FILLER_0_36_171
*614 FILLER_0_36_177
*615 FILLER_0_36_2
*616 FILLER_0_36_241
*617 FILLER_0_36_247
*618 FILLER_0_36_311
*619 FILLER_0_36_317
*620 FILLER_0_36_34
*621 FILLER_0_36_37
*622 FILLER_0_37_136
*623 FILLER_0_37_142
*624 FILLER_0_37_2
*625 FILLER_0_37_206
*626 FILLER_0_37_212
*627 FILLER_0_37_276
*628 FILLER_0_37_282
*629 FILLER_0_37_346
*630 FILLER_0_37_348
*631 FILLER_0_37_66
*632 FILLER_0_37_72
*633 FILLER_0_38_101
*634 FILLER_0_38_107
*635 FILLER_0_38_171
*636 FILLER_0_38_177
*637 FILLER_0_38_2
*638 FILLER_0_38_241
*639 FILLER_0_38_247
*640 FILLER_0_38_311
*641 FILLER_0_38_317
*642 FILLER_0_38_34
*643 FILLER_0_38_37
*644 FILLER_0_39_136
*645 FILLER_0_39_142
*646 FILLER_0_39_2
*647 FILLER_0_39_206
*648 FILLER_0_39_212
*649 FILLER_0_39_276
*650 FILLER_0_39_282
*651 FILLER_0_39_346
*652 FILLER_0_39_348
*653 FILLER_0_39_66
*654 FILLER_0_39_72
*655 FILLER_0_3_136
*656 FILLER_0_3_142
*657 FILLER_0_3_2
*658 FILLER_0_3_206
*659 FILLER_0_3_212
*660 FILLER_0_3_276
*661 FILLER_0_3_282
*662 FILLER_0_3_346
*663 FILLER_0_3_348
*664 FILLER_0_3_66
*665 FILLER_0_3_72
*666 FILLER_0_40_101
*667 FILLER_0_40_107
*668 FILLER_0_40_171
*669 FILLER_0_40_177
*670 FILLER_0_40_2
*671 FILLER_0_40_241
*672 FILLER_0_40_247
*673 FILLER_0_40_311
*674 FILLER_0_40_317
*675 FILLER_0_40_34
*676 FILLER_0_40_37
*677 FILLER_0_41_136
*678 FILLER_0_41_142
*679 FILLER_0_41_2
*680 FILLER_0_41_206
*681 FILLER_0_41_212
*682 FILLER_0_41_276
*683 FILLER_0_41_282
*684 FILLER_0_41_346
*685 FILLER_0_41_348
*686 FILLER_0_41_66
*687 FILLER_0_41_72
*688 FILLER_0_42_101
*689 FILLER_0_42_107
*690 FILLER_0_42_171
*691 FILLER_0_42_177
*692 FILLER_0_42_2
*693 FILLER_0_42_241
*694 FILLER_0_42_247
*695 FILLER_0_42_311
*696 FILLER_0_42_317
*697 FILLER_0_42_34
*698 FILLER_0_42_37
*699 FILLER_0_43_136
*700 FILLER_0_43_142
*701 FILLER_0_43_174
*702 FILLER_0_43_2
*703 FILLER_0_43_201
*704 FILLER_0_43_209
*705 FILLER_0_43_238
*706 FILLER_0_43_270
*707 FILLER_0_43_278
*708 FILLER_0_43_282
*709 FILLER_0_43_346
*710 FILLER_0_43_348
*711 FILLER_0_43_66
*712 FILLER_0_43_72
*713 FILLER_0_44_104
*714 FILLER_0_44_138
*715 FILLER_0_44_142
*716 FILLER_0_44_172
*717 FILLER_0_44_176
*718 FILLER_0_44_2
*719 FILLER_0_44_232
*720 FILLER_0_44_236
*721 FILLER_0_44_240
*722 FILLER_0_44_274
*723 FILLER_0_44_308
*724 FILLER_0_44_342
*725 FILLER_0_44_346
*726 FILLER_0_44_348
*727 FILLER_0_44_36
*728 FILLER_0_44_70
*729 FILLER_0_4_101
*730 FILLER_0_4_107
*731 FILLER_0_4_171
*732 FILLER_0_4_177
*733 FILLER_0_4_2
*734 FILLER_0_4_241
*735 FILLER_0_4_247
*736 FILLER_0_4_311
*737 FILLER_0_4_317
*738 FILLER_0_4_34
*739 FILLER_0_4_37
*740 FILLER_0_5_136
*741 FILLER_0_5_142
*742 FILLER_0_5_2
*743 FILLER_0_5_206
*744 FILLER_0_5_212
*745 FILLER_0_5_276
*746 FILLER_0_5_282
*747 FILLER_0_5_346
*748 FILLER_0_5_348
*749 FILLER_0_5_66
*750 FILLER_0_5_72
*751 FILLER_0_6_101
*752 FILLER_0_6_107
*753 FILLER_0_6_171
*754 FILLER_0_6_177
*755 FILLER_0_6_2
*756 FILLER_0_6_241
*757 FILLER_0_6_247
*758 FILLER_0_6_311
*759 FILLER_0_6_317
*760 FILLER_0_6_34
*761 FILLER_0_6_37
*762 FILLER_0_7_136
*763 FILLER_0_7_142
*764 FILLER_0_7_2
*765 FILLER_0_7_206
*766 FILLER_0_7_212
*767 FILLER_0_7_276
*768 FILLER_0_7_282
*769 FILLER_0_7_346
*770 FILLER_0_7_348
*771 FILLER_0_7_66
*772 FILLER_0_7_72
*773 FILLER_0_8_101
*774 FILLER_0_8_107
*775 FILLER_0_8_171
*776 FILLER_0_8_177
*777 FILLER_0_8_2
*778 FILLER_0_8_241
*779 FILLER_0_8_247
*780 FILLER_0_8_311
*781 FILLER_0_8_317
*782 FILLER_0_8_34
*783 FILLER_0_8_37
*784 FILLER_0_9_136
*785 FILLER_0_9_142
*786 FILLER_0_9_2
*787 FILLER_0_9_206
*788 FILLER_0_9_212
*789 FILLER_0_9_276
*790 FILLER_0_9_282
*791 FILLER_0_9_346
*792 FILLER_0_9_348
*793 FILLER_0_9_66
*794 FILLER_0_9_72
*795 PHY_EDGE_ROW_0_Left_45
*796 PHY_EDGE_ROW_0_Right_0
*797 PHY_EDGE_ROW_10_Left_55
*798 PHY_EDGE_ROW_10_Right_10
*799 PHY_EDGE_ROW_11_Left_56
*800 PHY_EDGE_ROW_11_Right_11
*801 PHY_EDGE_ROW_12_Left_57
*802 PHY_EDGE_ROW_12_Right_12
*803 PHY_EDGE_ROW_13_Left_58
*804 PHY_EDGE_ROW_13_Right_13
*805 PHY_EDGE_ROW_14_Left_59
*806 PHY_EDGE_ROW_14_Right_14
*807 PHY_EDGE_ROW_15_Left_60
*808 PHY_EDGE_ROW_15_Right_15
*809 PHY_EDGE_ROW_16_Left_61
*810 PHY_EDGE_ROW_16_Right_16
*811 PHY_EDGE_ROW_17_Left_62
*812 PHY_EDGE_ROW_17_Right_17
*813 PHY_EDGE_ROW_18_Left_63
*814 PHY_EDGE_ROW_18_Right_18
*815 PHY_EDGE_ROW_19_Left_64
*816 PHY_EDGE_ROW_19_Right_19
*817 PHY_EDGE_ROW_1_Left_46
*818 PHY_EDGE_ROW_1_Right_1
*819 PHY_EDGE_ROW_20_Left_65
*820 PHY_EDGE_ROW_20_Right_20
*821 PHY_EDGE_ROW_21_Left_66
*822 PHY_EDGE_ROW_21_Right_21
*823 PHY_EDGE_ROW_22_Left_67
*824 PHY_EDGE_ROW_22_Right_22
*825 PHY_EDGE_ROW_23_Left_68
*826 PHY_EDGE_ROW_23_Right_23
*827 PHY_EDGE_ROW_24_Left_69
*828 PHY_EDGE_ROW_24_Right_24
*829 PHY_EDGE_ROW_25_Left_70
*830 PHY_EDGE_ROW_25_Right_25
*831 PHY_EDGE_ROW_26_Left_71
*832 PHY_EDGE_ROW_26_Right_26
*833 PHY_EDGE_ROW_27_Left_72
*834 PHY_EDGE_ROW_27_Right_27
*835 PHY_EDGE_ROW_28_Left_73
*836 PHY_EDGE_ROW_28_Right_28
*837 PHY_EDGE_ROW_29_Left_74
*838 PHY_EDGE_ROW_29_Right_29
*839 PHY_EDGE_ROW_2_Left_47
*840 PHY_EDGE_ROW_2_Right_2
*841 PHY_EDGE_ROW_30_Left_75
*842 PHY_EDGE_ROW_30_Right_30
*843 PHY_EDGE_ROW_31_Left_76
*844 PHY_EDGE_ROW_31_Right_31
*845 PHY_EDGE_ROW_32_Left_77
*846 PHY_EDGE_ROW_32_Right_32
*847 PHY_EDGE_ROW_33_Left_78
*848 PHY_EDGE_ROW_33_Right_33
*849 PHY_EDGE_ROW_34_Left_79
*850 PHY_EDGE_ROW_34_Right_34
*851 PHY_EDGE_ROW_35_Left_80
*852 PHY_EDGE_ROW_35_Right_35
*853 PHY_EDGE_ROW_36_Left_81
*854 PHY_EDGE_ROW_36_Right_36
*855 PHY_EDGE_ROW_37_Left_82
*856 PHY_EDGE_ROW_37_Right_37
*857 PHY_EDGE_ROW_38_Left_83
*858 PHY_EDGE_ROW_38_Right_38
*859 PHY_EDGE_ROW_39_Left_84
*860 PHY_EDGE_ROW_39_Right_39
*861 PHY_EDGE_ROW_3_Left_48
*862 PHY_EDGE_ROW_3_Right_3
*863 PHY_EDGE_ROW_40_Left_85
*864 PHY_EDGE_ROW_40_Right_40
*865 PHY_EDGE_ROW_41_Left_86
*866 PHY_EDGE_ROW_41_Right_41
*867 PHY_EDGE_ROW_42_Left_87
*868 PHY_EDGE_ROW_42_Right_42
*869 PHY_EDGE_ROW_43_Left_88
*870 PHY_EDGE_ROW_43_Right_43
*871 PHY_EDGE_ROW_44_Left_89
*872 PHY_EDGE_ROW_44_Right_44
*873 PHY_EDGE_ROW_4_Left_49
*874 PHY_EDGE_ROW_4_Right_4
*875 PHY_EDGE_ROW_5_Left_50
*876 PHY_EDGE_ROW_5_Right_5
*877 PHY_EDGE_ROW_6_Left_51
*878 PHY_EDGE_ROW_6_Right_6
*879 PHY_EDGE_ROW_7_Left_52
*880 PHY_EDGE_ROW_7_Right_7
*881 PHY_EDGE_ROW_8_Left_53
*882 PHY_EDGE_ROW_8_Right_8
*883 PHY_EDGE_ROW_9_Left_54
*884 PHY_EDGE_ROW_9_Right_9
*885 TAP_TAPCELL_ROW_0_90
*886 TAP_TAPCELL_ROW_0_91
*887 TAP_TAPCELL_ROW_0_92
*888 TAP_TAPCELL_ROW_0_93
*889 TAP_TAPCELL_ROW_0_94
*890 TAP_TAPCELL_ROW_0_95
*891 TAP_TAPCELL_ROW_0_96
*892 TAP_TAPCELL_ROW_0_97
*893 TAP_TAPCELL_ROW_0_98
*894 TAP_TAPCELL_ROW_0_99
*895 TAP_TAPCELL_ROW_10_140
*896 TAP_TAPCELL_ROW_10_141
*897 TAP_TAPCELL_ROW_10_142
*898 TAP_TAPCELL_ROW_10_143
*899 TAP_TAPCELL_ROW_10_144
*900 TAP_TAPCELL_ROW_11_145
*901 TAP_TAPCELL_ROW_11_146
*902 TAP_TAPCELL_ROW_11_147
*903 TAP_TAPCELL_ROW_11_148
*904 TAP_TAPCELL_ROW_12_149
*905 TAP_TAPCELL_ROW_12_150
*906 TAP_TAPCELL_ROW_12_151
*907 TAP_TAPCELL_ROW_12_152
*908 TAP_TAPCELL_ROW_12_153
*909 TAP_TAPCELL_ROW_13_154
*910 TAP_TAPCELL_ROW_13_155
*911 TAP_TAPCELL_ROW_13_156
*912 TAP_TAPCELL_ROW_13_157
*913 TAP_TAPCELL_ROW_14_158
*914 TAP_TAPCELL_ROW_14_159
*915 TAP_TAPCELL_ROW_14_160
*916 TAP_TAPCELL_ROW_14_161
*917 TAP_TAPCELL_ROW_14_162
*918 TAP_TAPCELL_ROW_15_163
*919 TAP_TAPCELL_ROW_15_164
*920 TAP_TAPCELL_ROW_15_165
*921 TAP_TAPCELL_ROW_15_166
*922 TAP_TAPCELL_ROW_16_167
*923 TAP_TAPCELL_ROW_16_168
*924 TAP_TAPCELL_ROW_16_169
*925 TAP_TAPCELL_ROW_16_170
*926 TAP_TAPCELL_ROW_16_171
*927 TAP_TAPCELL_ROW_17_172
*928 TAP_TAPCELL_ROW_17_173
*929 TAP_TAPCELL_ROW_17_174
*930 TAP_TAPCELL_ROW_17_175
*931 TAP_TAPCELL_ROW_18_176
*932 TAP_TAPCELL_ROW_18_177
*933 TAP_TAPCELL_ROW_18_178
*934 TAP_TAPCELL_ROW_18_179
*935 TAP_TAPCELL_ROW_18_180
*936 TAP_TAPCELL_ROW_19_181
*937 TAP_TAPCELL_ROW_19_182
*938 TAP_TAPCELL_ROW_19_183
*939 TAP_TAPCELL_ROW_19_184
*940 TAP_TAPCELL_ROW_1_100
*941 TAP_TAPCELL_ROW_1_101
*942 TAP_TAPCELL_ROW_1_102
*943 TAP_TAPCELL_ROW_1_103
*944 TAP_TAPCELL_ROW_20_185
*945 TAP_TAPCELL_ROW_20_186
*946 TAP_TAPCELL_ROW_20_187
*947 TAP_TAPCELL_ROW_20_188
*948 TAP_TAPCELL_ROW_20_189
*949 TAP_TAPCELL_ROW_21_190
*950 TAP_TAPCELL_ROW_21_191
*951 TAP_TAPCELL_ROW_21_192
*952 TAP_TAPCELL_ROW_21_193
*953 TAP_TAPCELL_ROW_22_194
*954 TAP_TAPCELL_ROW_22_195
*955 TAP_TAPCELL_ROW_22_196
*956 TAP_TAPCELL_ROW_22_197
*957 TAP_TAPCELL_ROW_22_198
*958 TAP_TAPCELL_ROW_23_199
*959 TAP_TAPCELL_ROW_23_200
*960 TAP_TAPCELL_ROW_23_201
*961 TAP_TAPCELL_ROW_23_202
*962 TAP_TAPCELL_ROW_24_203
*963 TAP_TAPCELL_ROW_24_204
*964 TAP_TAPCELL_ROW_24_205
*965 TAP_TAPCELL_ROW_24_206
*966 TAP_TAPCELL_ROW_24_207
*967 TAP_TAPCELL_ROW_25_208
*968 TAP_TAPCELL_ROW_25_209
*969 TAP_TAPCELL_ROW_25_210
*970 TAP_TAPCELL_ROW_25_211
*971 TAP_TAPCELL_ROW_26_212
*972 TAP_TAPCELL_ROW_26_213
*973 TAP_TAPCELL_ROW_26_214
*974 TAP_TAPCELL_ROW_26_215
*975 TAP_TAPCELL_ROW_26_216
*976 TAP_TAPCELL_ROW_27_217
*977 TAP_TAPCELL_ROW_27_218
*978 TAP_TAPCELL_ROW_27_219
*979 TAP_TAPCELL_ROW_27_220
*980 TAP_TAPCELL_ROW_28_221
*981 TAP_TAPCELL_ROW_28_222
*982 TAP_TAPCELL_ROW_28_223
*983 TAP_TAPCELL_ROW_28_224
*984 TAP_TAPCELL_ROW_28_225
*985 TAP_TAPCELL_ROW_29_226
*986 TAP_TAPCELL_ROW_29_227
*987 TAP_TAPCELL_ROW_29_228
*988 TAP_TAPCELL_ROW_29_229
*989 TAP_TAPCELL_ROW_2_104
*990 TAP_TAPCELL_ROW_2_105
*991 TAP_TAPCELL_ROW_2_106
*992 TAP_TAPCELL_ROW_2_107
*993 TAP_TAPCELL_ROW_2_108
*994 TAP_TAPCELL_ROW_30_230
*995 TAP_TAPCELL_ROW_30_231
*996 TAP_TAPCELL_ROW_30_232
*997 TAP_TAPCELL_ROW_30_233
*998 TAP_TAPCELL_ROW_30_234
*999 TAP_TAPCELL_ROW_31_235
*1000 TAP_TAPCELL_ROW_31_236
*1001 TAP_TAPCELL_ROW_31_237
*1002 TAP_TAPCELL_ROW_31_238
*1003 TAP_TAPCELL_ROW_32_239
*1004 TAP_TAPCELL_ROW_32_240
*1005 TAP_TAPCELL_ROW_32_241
*1006 TAP_TAPCELL_ROW_32_242
*1007 TAP_TAPCELL_ROW_32_243
*1008 TAP_TAPCELL_ROW_33_244
*1009 TAP_TAPCELL_ROW_33_245
*1010 TAP_TAPCELL_ROW_33_246
*1011 TAP_TAPCELL_ROW_33_247
*1012 TAP_TAPCELL_ROW_34_248
*1013 TAP_TAPCELL_ROW_34_249
*1014 TAP_TAPCELL_ROW_34_250
*1015 TAP_TAPCELL_ROW_34_251
*1016 TAP_TAPCELL_ROW_34_252
*1017 TAP_TAPCELL_ROW_35_253
*1018 TAP_TAPCELL_ROW_35_254
*1019 TAP_TAPCELL_ROW_35_255
*1020 TAP_TAPCELL_ROW_35_256
*1021 TAP_TAPCELL_ROW_36_257
*1022 TAP_TAPCELL_ROW_36_258
*1023 TAP_TAPCELL_ROW_36_259
*1024 TAP_TAPCELL_ROW_36_260
*1025 TAP_TAPCELL_ROW_36_261
*1026 TAP_TAPCELL_ROW_37_262
*1027 TAP_TAPCELL_ROW_37_263
*1028 TAP_TAPCELL_ROW_37_264
*1029 TAP_TAPCELL_ROW_37_265
*1030 TAP_TAPCELL_ROW_38_266
*1031 TAP_TAPCELL_ROW_38_267
*1032 TAP_TAPCELL_ROW_38_268
*1033 TAP_TAPCELL_ROW_38_269
*1034 TAP_TAPCELL_ROW_38_270
*1035 TAP_TAPCELL_ROW_39_271
*1036 TAP_TAPCELL_ROW_39_272
*1037 TAP_TAPCELL_ROW_39_273
*1038 TAP_TAPCELL_ROW_39_274
*1039 TAP_TAPCELL_ROW_3_109
*1040 TAP_TAPCELL_ROW_3_110
*1041 TAP_TAPCELL_ROW_3_111
*1042 TAP_TAPCELL_ROW_3_112
*1043 TAP_TAPCELL_ROW_40_275
*1044 TAP_TAPCELL_ROW_40_276
*1045 TAP_TAPCELL_ROW_40_277
*1046 TAP_TAPCELL_ROW_40_278
*1047 TAP_TAPCELL_ROW_40_279
*1048 TAP_TAPCELL_ROW_41_280
*1049 TAP_TAPCELL_ROW_41_281
*1050 TAP_TAPCELL_ROW_41_282
*1051 TAP_TAPCELL_ROW_41_283
*1052 TAP_TAPCELL_ROW_42_284
*1053 TAP_TAPCELL_ROW_42_285
*1054 TAP_TAPCELL_ROW_42_286
*1055 TAP_TAPCELL_ROW_42_287
*1056 TAP_TAPCELL_ROW_42_288
*1057 TAP_TAPCELL_ROW_43_289
*1058 TAP_TAPCELL_ROW_43_290
*1059 TAP_TAPCELL_ROW_43_291
*1060 TAP_TAPCELL_ROW_43_292
*1061 TAP_TAPCELL_ROW_44_293
*1062 TAP_TAPCELL_ROW_44_294
*1063 TAP_TAPCELL_ROW_44_295
*1064 TAP_TAPCELL_ROW_44_296
*1065 TAP_TAPCELL_ROW_44_297
*1066 TAP_TAPCELL_ROW_44_298
*1067 TAP_TAPCELL_ROW_44_299
*1068 TAP_TAPCELL_ROW_44_300
*1069 TAP_TAPCELL_ROW_44_301
*1070 TAP_TAPCELL_ROW_44_302
*1071 TAP_TAPCELL_ROW_4_113
*1072 TAP_TAPCELL_ROW_4_114
*1073 TAP_TAPCELL_ROW_4_115
*1074 TAP_TAPCELL_ROW_4_116
*1075 TAP_TAPCELL_ROW_4_117
*1076 TAP_TAPCELL_ROW_5_118
*1077 TAP_TAPCELL_ROW_5_119
*1078 TAP_TAPCELL_ROW_5_120
*1079 TAP_TAPCELL_ROW_5_121
*1080 TAP_TAPCELL_ROW_6_122
*1081 TAP_TAPCELL_ROW_6_123
*1082 TAP_TAPCELL_ROW_6_124
*1083 TAP_TAPCELL_ROW_6_125
*1084 TAP_TAPCELL_ROW_6_126
*1085 TAP_TAPCELL_ROW_7_127
*1086 TAP_TAPCELL_ROW_7_128
*1087 TAP_TAPCELL_ROW_7_129
*1088 TAP_TAPCELL_ROW_7_130
*1089 TAP_TAPCELL_ROW_8_131
*1090 TAP_TAPCELL_ROW_8_132
*1091 TAP_TAPCELL_ROW_8_133
*1092 TAP_TAPCELL_ROW_8_134
*1093 TAP_TAPCELL_ROW_8_135
*1094 TAP_TAPCELL_ROW_9_136
*1095 TAP_TAPCELL_ROW_9_137
*1096 TAP_TAPCELL_ROW_9_138
*1097 TAP_TAPCELL_ROW_9_139
*1098 _068_
*1099 _069_
*1100 _070_
*1101 _071_
*1102 _072_
*1103 _073_
*1104 _074_
*1105 _075_
*1106 _076_
*1107 _077_
*1108 _078_
*1109 _079_
*1110 _080_
*1111 _081_
*1112 _082_
*1113 _083_
*1114 _084_
*1115 _085_
*1116 _086_
*1117 _087_
*1118 _088_
*1119 _089_
*1120 _090_
*1121 _091_
*1122 _092_
*1123 _093_
*1124 _094_
*1125 _095_
*1126 _096_
*1127 _097_
*1128 _098_
*1129 _099_
*1130 _100_
*1131 _101_
*1132 _102_
*1133 _103_
*1134 _104_
*1135 _105_
*1136 _106_
*1137 _107_
*1138 _108_
*1139 _109_
*1140 _110_
*1141 _111_
*1142 _112_
*1143 _113_
*1144 _114_
*1145 _115_
*1146 _116_
*1147 _117_
*1148 _118_
*1149 _119_
*1150 _120_
*1151 _121_
*1152 _122_
*1153 _123_
*1154 _124_
*1155 _125_
*1156 _126_
*1157 _127_
*1158 _128_
*1159 _129_
*1160 _130_
*1161 _131_
*1162 _132_
*1163 _133_
*1164 _134_
*1165 _135_
*1166 _136_
*1167 _137_
*1168 _138_
*1169 _139_
*1170 _140_
*1171 _141_
*1172 _142_
*1173 _143_
*1174 _144_
*1175 _145_
*1176 _146_
*1177 _147_
*1178 _148_
*1179 _149_
*1180 _150_
*1181 _151_
*1182 _152_
*1183 _153_
*1184 _154_
*1185 _155_
*1186 _158_
*1187 _159_
*1188 _160_
*1189 _161_
*1190 _162_
*1191 _163_
*1192 _164_
*1193 _165_
*1194 clkbuf_0_clk
*1195 clkbuf_1_0__f_clk
*1196 clkbuf_1_1__f_clk
*1197 fanout25
*1198 ita14_26
*1199 ita14_27
*1200 output1
*1201 output10
*1202 output11
*1203 output12
*1204 output13
*1205 output14
*1206 output15
*1207 output16
*1208 output17
*1209 output18
*1210 output19
*1211 output2
*1212 output20
*1213 output21
*1214 output22
*1215 output23
*1216 output24
*1217 output3
*1218 output4
*1219 output5
*1220 output6
*1221 output7
*1222 output8
*1223 output9

*PORTS
clk I
segm[0] O
segm[10] O
segm[11] O
segm[12] O
segm[13] O
segm[1] O
segm[2] O
segm[3] O
segm[4] O
segm[5] O
segm[6] O
segm[7] O
segm[8] O
segm[9] O
sel[0] O
sel[10] O
sel[11] O
sel[1] O
sel[2] O
sel[3] O
sel[4] O
sel[5] O
sel[6] O
sel[7] O
sel[8] O
sel[9] O

*D_NET *1 0.0137034
*CONN
*P clk I
*I *1194:I I *D gf180mcu_fd_sc_mcu7t5v0__clkbuf_16
*I *130:I I *D gf180mcu_fd_sc_mcu7t5v0__antenna
*CAP
1 clk 0.00445438
2 *1194:I 0.000210668
3 *130:I 0
4 *1:17 0.000557226
5 *1:15 0.00480094
6 *1194:I *1130:A2 0.000415294
7 *1194:I *66:23 1.17984e-05
8 *1194:I *67:8 0.000322343
9 *1194:I *83:29 5.7501e-05
10 *1:15 *1148:I 0
11 *1:15 *1149:B1 0
12 *1:15 *1159:A1 0.000142556
13 *1:15 *1207:I 0.000448581
14 *1:17 *1149:A1 0.00109524
15 *1:17 *1149:B1 3.97743e-05
16 *1:17 *1159:A1 0
17 *1:17 *67:8 0.00103522
18 *1:17 *83:29 0.000111911
*RES
1 clk *1:15 46.908 
2 *1:15 *1:17 5.616 
3 *1:17 *130:I 9 
4 *1:17 *1194:I 11.392 
*END

*D_NET *2 0.00132986
*CONN
*P segm[0] O
*I *1198:ZN O *D gf180mcu_fd_sc_mcu7t5v0__tiel
*CAP
1 segm[0] 0.000664931
2 *1198:ZN 0.000664931
*RES
1 *1198:ZN segm[0] 9.856 
*END

*D_NET *3 0.000871235
*CONN
*P segm[10] O
*I *1200:Z O *D gf180mcu_fd_sc_mcu7t5v0__buf_8
*CAP
1 segm[10] 0.000435617
2 *1200:Z 0.000435617
*RES
1 *1200:Z segm[10] 12.276 
*END

*D_NET *4 0.000514696
*CONN
*P segm[11] O
*I *1211:Z O *D gf180mcu_fd_sc_mcu7t5v0__buf_8
*CAP
1 segm[11] 0.000221342
2 *1211:Z 0.000221342
3 segm[11] segm[6] 7.20128e-05
*RES
1 *1211:Z segm[11] 11.34 
*END

*D_NET *5 0.00198521
*CONN
*P segm[12] O
*I *1217:Z O *D gf180mcu_fd_sc_mcu7t5v0__buf_8
*CAP
1 segm[12] 0.000980673
2 *1217:Z 0.000980673
3 segm[12] *1217:I 2.38656e-05
*RES
1 *1217:Z segm[12] 21.352 
*END

*D_NET *6 0.00103202
*CONN
*P segm[13] O
*I *1218:Z O *D gf180mcu_fd_sc_mcu7t5v0__buf_8
*CAP
1 segm[13] 0.000464215
2 *1218:Z 0.000464215
3 segm[13] sel[6] 0.00010359
*RES
1 *1218:Z segm[13] 12.692 
*END

*D_NET *7 0.00126714
*CONN
*P segm[1] O
*I *1219:Z O *D gf180mcu_fd_sc_mcu7t5v0__buf_8
*CAP
1 segm[1] 0.000570306
2 *1219:Z 0.000570306
3 segm[1] segm[4] 0.00012653
*RES
1 *1219:Z segm[1] 9.544 
*END

*D_NET *8 0.00053657
*CONN
*P segm[2] O
*I *1220:Z O *D gf180mcu_fd_sc_mcu7t5v0__buf_8
*CAP
1 segm[2] 0.000197781
2 *1220:Z 0.000197781
3 segm[2] segm[5] 7.20128e-05
4 segm[2] segm[7] 6.8994e-05
*RES
1 *1220:Z segm[2] 11.34 
*END

*D_NET *9 0.00132986
*CONN
*P segm[3] O
*I *1199:ZN O *D gf180mcu_fd_sc_mcu7t5v0__tiel
*CAP
1 segm[3] 0.000664931
2 *1199:ZN 0.000664931
*RES
1 *1199:ZN segm[3] 9.856 
*END

*D_NET *10 0.00296879
*CONN
*P segm[4] O
*I *1221:Z O *D gf180mcu_fd_sc_mcu7t5v0__buf_8
*CAP
1 segm[4] 0.00124158
2 *1221:Z 0.00124158
3 segm[4] sel[5] 0.00012653
4 segm[4] *1219:I 0.000190764
5 segm[4] *1221:I 4.18042e-05
6 segm[1] segm[4] 0.00012653
*RES
1 *1221:Z segm[4] 24.264 
*END

*D_NET *11 0.000841581
*CONN
*P segm[5] O
*I *1222:Z O *D gf180mcu_fd_sc_mcu7t5v0__buf_8
*CAP
1 segm[5] 0.000354456
2 *1222:Z 0.000354456
3 segm[5] sel[3] 6.0656e-05
4 segm[2] segm[5] 7.20128e-05
*RES
1 *1222:Z segm[5] 12.276 
*END

*D_NET *12 0.00063989
*CONN
*P segm[6] O
*I *1223:Z O *D gf180mcu_fd_sc_mcu7t5v0__buf_8
*CAP
1 segm[6] 0.000249442
2 *1223:Z 0.000249442
3 segm[6] segm[7] 6.8994e-05
4 segm[11] segm[6] 7.20128e-05
*RES
1 *1223:Z segm[6] 11.652 
*END

*D_NET *13 0.000704164
*CONN
*P segm[7] O
*I *1201:Z O *D gf180mcu_fd_sc_mcu7t5v0__buf_8
*CAP
1 segm[7] 0.000283088
2 *1201:Z 0.000283088
3 segm[2] segm[7] 6.8994e-05
4 segm[6] segm[7] 6.8994e-05
*RES
1 *1201:Z segm[7] 11.86 
*END

*D_NET *14 0.00191503
*CONN
*P segm[8] O
*I *1202:Z O *D gf180mcu_fd_sc_mcu7t5v0__buf_8
*CAP
1 segm[8] 0.000901007
2 *1202:Z 0.000901007
3 segm[8] *1202:I 0.000113016
*RES
1 *1202:Z segm[8] 20.728 
*END

*D_NET *15 0.0022124
*CONN
*P segm[9] O
*I *1203:Z O *D gf180mcu_fd_sc_mcu7t5v0__buf_8
*CAP
1 segm[9] 0.0011062
2 *1203:Z 0.0011062
*RES
1 *1203:Z segm[9] 22.184 
*END

*D_NET *16 0.000891317
*CONN
*P sel[0] O
*I *1204:Z O *D gf180mcu_fd_sc_mcu7t5v0__buf_8
*CAP
1 sel[0] 0.000415331
2 *1204:Z 0.000415331
3 sel[0] sel[2] 6.0656e-05
*RES
1 *1204:Z sel[0] 12.276 
*END

*D_NET *17 0.00237812
*CONN
*P sel[10] O
*I *1205:Z O *D gf180mcu_fd_sc_mcu7t5v0__buf_8
*CAP
1 sel[10] 0.00111912
2 *1205:Z 0.00111912
3 sel[10] sel[8] 0.000139874
*RES
1 *1205:Z sel[10] 23.016 
*END

*D_NET *18 0.00246482
*CONN
*P sel[11] O
*I *1206:Z O *D gf180mcu_fd_sc_mcu7t5v0__buf_8
*CAP
1 sel[11] 0.00113694
2 *1206:Z 0.00113694