*SPEF "ieee 1481-1999"
*DESIGN "ita19"
*DATE "11:11:11 Fri 11 11, 1111"
*VENDOR "OpenRCX"
*PROGRAM "Parallel Extraction"
*VERSION "1.0"
*DESIGN_FLOW "NAME_SCOPE LOCAL" "PIN_CAP NONE"
*DIVIDER /
*DELIMITER :
*BUS_DELIMITER []
*T_UNIT 1 NS
*C_UNIT 1 PF
*R_UNIT 1 OHM
*L_UNIT 1 HENRY

*NAME_MAP
*1 clk
*2 net26
*3 segm[10]
*4 segm[11]
*5 segm[12]
*6 segm[13]
*7 segm[1]
*8 segm[2]
*9 segm[3]
*10 segm[4]
*11 segm[5]
*12 segm[6]
*13 segm[7]
*14 segm[8]
*15 segm[9]
*16 sel[0]
*17 sel[10]
*18 sel[11]
*19 sel[1]
*20 sel[2]
*21 sel[3]
*22 sel[4]
*23 sel[5]
*24 sel[6]
*25 sel[7]
*26 sel[8]
*27 sel[9]
*30 _000_
*31 _001_
*32 _002_
*33 _003_
*34 _004_
*35 _005_
*36 _006_
*37 _007_
*38 _008_
*39 _009_
*40 _010_
*41 _011_
*42 _012_
*43 _013_
*44 _014_
*45 _015_
*46 _016_
*47 _017_
*48 _018_
*49 _019_
*50 _020_
*51 _021_
*52 _022_
*53 _023_
*54 _024_
*55 _025_
*56 _026_
*57 _027_
*58 _028_
*59 _029_
*60 _030_
*61 _031_
*62 _032_
*63 _033_
*64 _034_
*65 _035_
*66 _036_
*67 _037_
*68 _038_
*69 _039_
*70 _040_
*71 _041_
*72 _042_
*73 _043_
*74 _044_
*75 _045_
*76 _046_
*77 _047_
*78 _048_
*79 _049_
*80 _050_
*81 _051_
*82 _052_
*83 _053_
*84 _054_
*85 _055_
*86 _056_
*87 _057_
*88 _058_
*89 _059_
*90 _060_
*91 _061_
*92 _062_
*93 _063_
*94 _064_
*95 _065_
*96 _066_
*97 _067_
*98 _068_
*99 _069_
*100 _070_
*101 _071_
*102 _072_
*103 _073_
*104 _074_
*105 _075_
*106 _076_
*107 _077_
*108 _078_
*109 _079_
*110 _080_
*111 _081_
*112 _082_
*113 _083_
*114 _084_
*115 _085_
*116 _086_
*117 _087_
*118 _088_
*119 _089_
*120 _090_
*121 _091_
*122 _092_
*123 _093_
*124 _094_
*125 _095_
*126 _096_
*127 clknet_0_clk
*128 clknet_1_0__leaf_clk
*129 clknet_1_1__leaf_clk
*130 dut19\.count\[0\]
*131 dut19\.count\[1\]
*132 dut19\.count\[2\]
*133 dut19\.count\[3\]
*134 net1
*135 net10
*136 net11
*137 net12
*138 net13
*139 net14
*140 net15
*141 net16
*142 net17
*143 net18
*144 net19
*145 net2
*146 net20
*147 net21
*148 net22
*149 net23
*150 net24
*151 net25
*152 net3
*153 net4
*154 net5
*155 net6
*156 net7
*157 net8
*158 net9
*159 ANTENNA__194__CLK
*160 ANTENNA__195__CLK
*161 ANTENNA__196__CLK
*162 ANTENNA__197__CLK
*163 ANTENNA__198__CLK
*164 ANTENNA__199__CLK
*165 ANTENNA__200__CLK
*166 ANTENNA__201__CLK
*167 ANTENNA__202__CLK
*168 ANTENNA__203__CLK
*169 ANTENNA__204__CLK
*170 ANTENNA__205__CLK
*171 ANTENNA__206__CLK
*172 ANTENNA__207__CLK
*173 ANTENNA__208__CLK
*174 ANTENNA__209__CLK
*175 ANTENNA__210__CLK
*176 ANTENNA__211__CLK
*177 ANTENNA__212__CLK
*178 ANTENNA__213__CLK
*179 ANTENNA__214__CLK
*180 ANTENNA__215__CLK
*181 ANTENNA__216__CLK
*182 ANTENNA__217__CLK
*183 ANTENNA__218__CLK
*184 ANTENNA_clkbuf_0_clk_I
*185 FILLER_0_0_104
*186 FILLER_0_0_138
*187 FILLER_0_0_142
*188 FILLER_0_0_172
*189 FILLER_0_0_174
*190 FILLER_0_0_2
*191 FILLER_0_0_201
*192 FILLER_0_0_203
*193 FILLER_0_0_232
*194 FILLER_0_0_236
*195 FILLER_0_0_240
*196 FILLER_0_0_274
*197 FILLER_0_0_308
*198 FILLER_0_0_342
*199 FILLER_0_0_346
*200 FILLER_0_0_348
*201 FILLER_0_0_36
*202 FILLER_0_0_70
*203 FILLER_0_10_101
*204 FILLER_0_10_107
*205 FILLER_0_10_171
*206 FILLER_0_10_177
*207 FILLER_0_10_2
*208 FILLER_0_10_241
*209 FILLER_0_10_247
*210 FILLER_0_10_311
*211 FILLER_0_10_317
*212 FILLER_0_10_34
*213 FILLER_0_10_37
*214 FILLER_0_11_136
*215 FILLER_0_11_142
*216 FILLER_0_11_2
*217 FILLER_0_11_206
*218 FILLER_0_11_212
*219 FILLER_0_11_276
*220 FILLER_0_11_282
*221 FILLER_0_11_346
*222 FILLER_0_11_348
*223 FILLER_0_11_66
*224 FILLER_0_11_72
*225 FILLER_0_12_101
*226 FILLER_0_12_107
*227 FILLER_0_12_115
*228 FILLER_0_12_119
*229 FILLER_0_12_121
*230 FILLER_0_12_151
*231 FILLER_0_12_155
*232 FILLER_0_12_157
*233 FILLER_0_12_160
*234 FILLER_0_12_168
*235 FILLER_0_12_170
*236 FILLER_0_12_177
*237 FILLER_0_12_2
*238 FILLER_0_12_241
*239 FILLER_0_12_247
*240 FILLER_0_12_311
*241 FILLER_0_12_317
*242 FILLER_0_12_34
*243 FILLER_0_12_37
*244 FILLER_0_13_2
*245 FILLER_0_13_200
*246 FILLER_0_13_204
*247 FILLER_0_13_208
*248 FILLER_0_13_212
*249 FILLER_0_13_276
*250 FILLER_0_13_282
*251 FILLER_0_13_346
*252 FILLER_0_13_348
*253 FILLER_0_13_66
*254 FILLER_0_13_72
*255 FILLER_0_14_101
*256 FILLER_0_14_107
*257 FILLER_0_14_123
*258 FILLER_0_14_127
*259 FILLER_0_14_158
*260 FILLER_0_14_169
*261 FILLER_0_14_173
*262 FILLER_0_14_177
*263 FILLER_0_14_2
*264 FILLER_0_14_220
*265 FILLER_0_14_236
*266 FILLER_0_14_244
*267 FILLER_0_14_247
*268 FILLER_0_14_311
*269 FILLER_0_14_317
*270 FILLER_0_14_34
*271 FILLER_0_14_37
*272 FILLER_0_15_121
*273 FILLER_0_15_125
*274 FILLER_0_15_133
*275 FILLER_0_15_137
*276 FILLER_0_15_139
*277 FILLER_0_15_166
*278 FILLER_0_15_186
*279 FILLER_0_15_194
*280 FILLER_0_15_198
*281 FILLER_0_15_2
*282 FILLER_0_15_203
*283 FILLER_0_15_207
*284 FILLER_0_15_209
*285 FILLER_0_15_212
*286 FILLER_0_15_276
*287 FILLER_0_15_282
*288 FILLER_0_15_346
*289 FILLER_0_15_348
*290 FILLER_0_15_66
*291 FILLER_0_15_72
*292 FILLER_0_15_88
*293 FILLER_0_16_101
*294 FILLER_0_16_107
*295 FILLER_0_16_111
*296 FILLER_0_16_121
*297 FILLER_0_16_153
*298 FILLER_0_16_160
*299 FILLER_0_16_168
*300 FILLER_0_16_172
*301 FILLER_0_16_174
*302 FILLER_0_16_177
*303 FILLER_0_16_193
*304 FILLER_0_16_2
*305 FILLER_0_16_203
*306 FILLER_0_16_236
*307 FILLER_0_16_244
*308 FILLER_0_16_247
*309 FILLER_0_16_311
*310 FILLER_0_16_317
*311 FILLER_0_16_34
*312 FILLER_0_16_37
*313 FILLER_0_17_128
*314 FILLER_0_17_132
*315 FILLER_0_17_142
*316 FILLER_0_17_150
*317 FILLER_0_17_154
*318 FILLER_0_17_156
*319 FILLER_0_17_207
*320 FILLER_0_17_209
*321 FILLER_0_17_225
*322 FILLER_0_17_227
*323 FILLER_0_17_232
*324 FILLER_0_17_264
*325 FILLER_0_17_28
*326 FILLER_0_17_282
*327 FILLER_0_17_314
*328 FILLER_0_17_322
*329 FILLER_0_17_60
*330 FILLER_0_17_68
*331 FILLER_0_17_72
*332 FILLER_0_17_88
*333 FILLER_0_17_92
*334 FILLER_0_18_101
*335 FILLER_0_18_107
*336 FILLER_0_18_111
*337 FILLER_0_18_128
*338 FILLER_0_18_136
*339 FILLER_0_18_138
*340 FILLER_0_18_145
*341 FILLER_0_18_174
*342 FILLER_0_18_186
*343 FILLER_0_18_188
*344 FILLER_0_18_195
*345 FILLER_0_18_203
*346 FILLER_0_18_207
*347 FILLER_0_18_240
*348 FILLER_0_18_244
*349 FILLER_0_18_247
*350 FILLER_0_18_28
*351 FILLER_0_18_311
*352 FILLER_0_18_317
*353 FILLER_0_18_32
*354 FILLER_0_18_34
*355 FILLER_0_18_37
*356 FILLER_0_19_104
*357 FILLER_0_19_120
*358 FILLER_0_19_128
*359 FILLER_0_19_132
*360 FILLER_0_19_142
*361 FILLER_0_19_144
*362 FILLER_0_19_190
*363 FILLER_0_19_194
*364 FILLER_0_19_196
*365 FILLER_0_19_2
*366 FILLER_0_19_203
*367 FILLER_0_19_207
*368 FILLER_0_19_209
*369 FILLER_0_19_224
*370 FILLER_0_19_256
*371 FILLER_0_19_272
*372 FILLER_0_19_282
*373 FILLER_0_19_314
*374 FILLER_0_19_322
*375 FILLER_0_19_66
*376 FILLER_0_19_72
*377 FILLER_0_1_136
*378 FILLER_0_1_142
*379 FILLER_0_1_150
*380 FILLER_0_1_154
*381 FILLER_0_1_156
*382 FILLER_0_1_183
*383 FILLER_0_1_199
*384 FILLER_0_1_2
*385 FILLER_0_1_207
*386 FILLER_0_1_209
*387 FILLER_0_1_238
*388 FILLER_0_1_270
*389 FILLER_0_1_278
*390 FILLER_0_1_282
*391 FILLER_0_1_346
*392 FILLER_0_1_348
*393 FILLER_0_1_66
*394 FILLER_0_1_72
*395 FILLER_0_20_101
*396 FILLER_0_20_107
*397 FILLER_0_20_115
*398 FILLER_0_20_119
*399 FILLER_0_20_136
*400 FILLER_0_20_138
*401 FILLER_0_20_151
*402 FILLER_0_20_153
*403 FILLER_0_20_168
*404 FILLER_0_20_2
*405 FILLER_0_20_206
*406 FILLER_0_20_210
*407 FILLER_0_20_220
*408 FILLER_0_20_236
*409 FILLER_0_20_244
*410 FILLER_0_20_247
*411 FILLER_0_20_311
*412 FILLER_0_20_317
*413 FILLER_0_20_34
*414 FILLER_0_20_37
*415 FILLER_0_21_122
*416 FILLER_0_21_126
*417 FILLER_0_21_137
*418 FILLER_0_21_139
*419 FILLER_0_21_142
*420 FILLER_0_21_146
*421 FILLER_0_21_159
*422 FILLER_0_21_176
*423 FILLER_0_21_180
*424 FILLER_0_21_196
*425 FILLER_0_21_2
*426 FILLER_0_21_204
*427 FILLER_0_21_212
*428 FILLER_0_21_243
*429 FILLER_0_21_275
*430 FILLER_0_21_279
*431 FILLER_0_21_282
*432 FILLER_0_21_346
*433 FILLER_0_21_348
*434 FILLER_0_21_66
*435 FILLER_0_21_72
*436 FILLER_0_22_107
*437 FILLER_0_22_114
*438 FILLER_0_22_116
*439 FILLER_0_22_134
*440 FILLER_0_22_138
*441 FILLER_0_22_153
*442 FILLER_0_22_161
*443 FILLER_0_22_171
*444 FILLER_0_22_189
*445 FILLER_0_22_2
*446 FILLER_0_22_210
*447 FILLER_0_22_218
*448 FILLER_0_22_223
*449 FILLER_0_22_231
*450 FILLER_0_22_239
*451 FILLER_0_22_243
*452 FILLER_0_22_247
*453 FILLER_0_22_311
*454 FILLER_0_22_317
*455 FILLER_0_22_321
*456 FILLER_0_22_34
*457 FILLER_0_22_37
*458 FILLER_0_22_69
*459 FILLER_0_22_73
*460 FILLER_0_22_75
*461 FILLER_0_23_104
*462 FILLER_0_23_107
*463 FILLER_0_23_115
*464 FILLER_0_23_123
*465 FILLER_0_23_139
*466 FILLER_0_23_142
*467 FILLER_0_23_207
*468 FILLER_0_23_209
*469 FILLER_0_23_247
*470 FILLER_0_23_279
*471 FILLER_0_23_28
*472 FILLER_0_23_282
*473 FILLER_0_23_314
*474 FILLER_0_23_322
*475 FILLER_0_23_60
*476 FILLER_0_23_68
*477 FILLER_0_23_72
*478 FILLER_0_24_101
*479 FILLER_0_24_107
*480 FILLER_0_24_111
*481 FILLER_0_24_124
*482 FILLER_0_24_134
*483 FILLER_0_24_148
*484 FILLER_0_24_155
*485 FILLER_0_24_159
*486 FILLER_0_24_161
*487 FILLER_0_24_173
*488 FILLER_0_24_182
*489 FILLER_0_24_186
*490 FILLER_0_24_192
*491 FILLER_0_24_2
*492 FILLER_0_24_208
*493 FILLER_0_24_212
*494 FILLER_0_24_244
*495 FILLER_0_24_247
*496 FILLER_0_24_311
*497 FILLER_0_24_317
*498 FILLER_0_24_321
*499 FILLER_0_24_34
*500 FILLER_0_24_37
*501 FILLER_0_25_130
*502 FILLER_0_25_138
*503 FILLER_0_25_142
*504 FILLER_0_25_147
*505 FILLER_0_25_155
*506 FILLER_0_25_159
*507 FILLER_0_25_189
*508 FILLER_0_25_193
*509 FILLER_0_25_2
*510 FILLER_0_25_209
*511 FILLER_0_25_212
*512 FILLER_0_25_276
*513 FILLER_0_25_282
*514 FILLER_0_25_346
*515 FILLER_0_25_348
*516 FILLER_0_25_66
*517 FILLER_0_25_72
*518 FILLER_0_25_80
*519 FILLER_0_26_101
*520 FILLER_0_26_107
*521 FILLER_0_26_121
*522 FILLER_0_26_137
*523 FILLER_0_26_139
*524 FILLER_0_26_152
*525 FILLER_0_26_156
*526 FILLER_0_26_158
*527 FILLER_0_26_173
*528 FILLER_0_26_177
*529 FILLER_0_26_185
*530 FILLER_0_26_187
*531 FILLER_0_26_2
*532 FILLER_0_26_204
*533 FILLER_0_26_208
*534 FILLER_0_26_210
*535 FILLER_0_26_219
*536 FILLER_0_26_226
*537 FILLER_0_26_242
*538 FILLER_0_26_244
*539 FILLER_0_26_247
*540 FILLER_0_26_311
*541 FILLER_0_26_317
*542 FILLER_0_26_321
*543 FILLER_0_26_34
*544 FILLER_0_26_37
*545 FILLER_0_27_104
*546 FILLER_0_27_142
*547 FILLER_0_27_146
*548 FILLER_0_27_2
*549 FILLER_0_27_204
*550 FILLER_0_27_241
*551 FILLER_0_27_273
*552 FILLER_0_27_277
*553 FILLER_0_27_279
*554 FILLER_0_27_282
*555 FILLER_0_27_314
*556 FILLER_0_27_322
*557 FILLER_0_27_66
*558 FILLER_0_27_72
*559 FILLER_0_28_101
*560 FILLER_0_28_107
*561 FILLER_0_28_109
*562 FILLER_0_28_117
*563 FILLER_0_28_119
*564 FILLER_0_28_128
*565 FILLER_0_28_144
*566 FILLER_0_28_174
*567 FILLER_0_28_188
*568 FILLER_0_28_2
*569 FILLER_0_28_227
*570 FILLER_0_28_243
*571 FILLER_0_28_247
*572 FILLER_0_28_311
*573 FILLER_0_28_317
*574 FILLER_0_28_321
*575 FILLER_0_28_34
*576 FILLER_0_28_37
*577 FILLER_0_29_126
*578 FILLER_0_29_130
*579 FILLER_0_29_138
*580 FILLER_0_29_142
*581 FILLER_0_29_146
*582 FILLER_0_29_153
*583 FILLER_0_29_161
*584 FILLER_0_29_164
*585 FILLER_0_29_197
*586 FILLER_0_29_2
*587 FILLER_0_29_205
*588 FILLER_0_29_209
*589 FILLER_0_29_218
*590 FILLER_0_29_250
*591 FILLER_0_29_266
*592 FILLER_0_29_274
*593 FILLER_0_29_278
*594 FILLER_0_29_282
*595 FILLER_0_29_314
*596 FILLER_0_29_322
*597 FILLER_0_29_66
*598 FILLER_0_29_72
*599 FILLER_0_29_88
*600 FILLER_0_29_96
*601 FILLER_0_2_101
*602 FILLER_0_2_107
*603 FILLER_0_2_171
*604 FILLER_0_2_177
*605 FILLER_0_2_2
*606 FILLER_0_2_241
*607 FILLER_0_2_247
*608 FILLER_0_2_311
*609 FILLER_0_2_317
*610 FILLER_0_2_34
*611 FILLER_0_2_37
*612 FILLER_0_30_101
*613 FILLER_0_30_107
*614 FILLER_0_30_114
*615 FILLER_0_30_130
*616 FILLER_0_30_146
*617 FILLER_0_30_154
*618 FILLER_0_30_156
*619 FILLER_0_30_162
*620 FILLER_0_30_170
*621 FILLER_0_30_174
*622 FILLER_0_30_177
*623 FILLER_0_30_181
*624 FILLER_0_30_188
*625 FILLER_0_30_220
*626 FILLER_0_30_236
*627 FILLER_0_30_244
*628 FILLER_0_30_247
*629 FILLER_0_30_28
*630 FILLER_0_30_311
*631 FILLER_0_30_317
*632 FILLER_0_30_32
*633 FILLER_0_30_34
*634 FILLER_0_30_37
*635 FILLER_0_31_116
*636 FILLER_0_31_131
*637 FILLER_0_31_139
*638 FILLER_0_31_171
*639 FILLER_0_31_175
*640 FILLER_0_31_2
*641 FILLER_0_31_207
*642 FILLER_0_31_209
*643 FILLER_0_31_212
*644 FILLER_0_31_276
*645 FILLER_0_31_282
*646 FILLER_0_31_346
*647 FILLER_0_31_348
*648 FILLER_0_31_66
*649 FILLER_0_31_72
*650 FILLER_0_31_80
*651 FILLER_0_31_84
*652 FILLER_0_31_86
*653 FILLER_0_32_101
*654 FILLER_0_32_136
*655 FILLER_0_32_140
*656 FILLER_0_32_148
*657 FILLER_0_32_157
*658 FILLER_0_32_173
*659 FILLER_0_32_177
*660 FILLER_0_32_2
*661 FILLER_0_32_241
*662 FILLER_0_32_247
*663 FILLER_0_32_311
*664 FILLER_0_32_317
*665 FILLER_0_32_34
*666 FILLER_0_32_37
*667 FILLER_0_33_136
*668 FILLER_0_33_142
*669 FILLER_0_33_2
*670 FILLER_0_33_206
*671 FILLER_0_33_212
*672 FILLER_0_33_276
*673 FILLER_0_33_282
*674 FILLER_0_33_346
*675 FILLER_0_33_348
*676 FILLER_0_33_66
*677 FILLER_0_33_72
*678 FILLER_0_34_101
*679 FILLER_0_34_107
*680 FILLER_0_34_171
*681 FILLER_0_34_177
*682 FILLER_0_34_2
*683 FILLER_0_34_241
*684 FILLER_0_34_247
*685 FILLER_0_34_311
*686 FILLER_0_34_317
*687 FILLER_0_34_34
*688 FILLER_0_34_37
*689 FILLER_0_35_136
*690 FILLER_0_35_142
*691 FILLER_0_35_2
*692 FILLER_0_35_206
*693 FILLER_0_35_212
*694 FILLER_0_35_276
*695 FILLER_0_35_282
*696 FILLER_0_35_346
*697 FILLER_0_35_348
*698 FILLER_0_35_66
*699 FILLER_0_35_72
*700 FILLER_0_36_101
*701 FILLER_0_36_107
*702 FILLER_0_36_171
*703 FILLER_0_36_177
*704 FILLER_0_36_2
*705 FILLER_0_36_241
*706 FILLER_0_36_247
*707 FILLER_0_36_311
*708 FILLER_0_36_317
*709 FILLER_0_36_34
*710 FILLER_0_36_37
*711 FILLER_0_37_136
*712 FILLER_0_37_142
*713 FILLER_0_37_2
*714 FILLER_0_37_206
*715 FILLER_0_37_212
*716 FILLER_0_37_276
*717 FILLER_0_37_282
*718 FILLER_0_37_346
*719 FILLER_0_37_348
*720 FILLER_0_37_66
*721 FILLER_0_37_72
*722 FILLER_0_38_101
*723 FILLER_0_38_107
*724 FILLER_0_38_171
*725 FILLER_0_38_177
*726 FILLER_0_38_2
*727 FILLER_0_38_241
*728 FILLER_0_38_247
*729 FILLER_0_38_311
*730 FILLER_0_38_317
*731 FILLER_0_38_34
*732 FILLER_0_38_37
*733 FILLER_0_39_136
*734 FILLER_0_39_142
*735 FILLER_0_39_2
*736 FILLER_0_39_206
*737 FILLER_0_39_212
*738 FILLER_0_39_276
*739 FILLER_0_39_282
*740 FILLER_0_39_346
*741 FILLER_0_39_348
*742 FILLER_0_39_66
*743 FILLER_0_39_72
*744 FILLER_0_3_136
*745 FILLER_0_3_142
*746 FILLER_0_3_2
*747 FILLER_0_3_206
*748 FILLER_0_3_212
*749 FILLER_0_3_276
*750 FILLER_0_3_282
*751 FILLER_0_3_346
*752 FILLER_0_3_348
*753 FILLER_0_3_66
*754 FILLER_0_3_72
*755 FILLER_0_40_101
*756 FILLER_0_40_107
*757 FILLER_0_40_171
*758 FILLER_0_40_177
*759 FILLER_0_40_2
*760 FILLER_0_40_241
*761 FILLER_0_40_247
*762 FILLER_0_40_311
*763 FILLER_0_40_317
*764 FILLER_0_40_34
*765 FILLER_0_40_37
*766 FILLER_0_41_136
*767 FILLER_0_41_142
*768 FILLER_0_41_2
*769 FILLER_0_41_206
*770 FILLER_0_41_212
*771 FILLER_0_41_276
*772 FILLER_0_41_282
*773 FILLER_0_41_346
*774 FILLER_0_41_348
*775 FILLER_0_41_66
*776 FILLER_0_41_72
*777 FILLER_0_42_101
*778 FILLER_0_42_107
*779 FILLER_0_42_123
*780 FILLER_0_42_153
*781 FILLER_0_42_169
*782 FILLER_0_42_173
*783 FILLER_0_42_177
*784 FILLER_0_42_2
*785 FILLER_0_42_241
*786 FILLER_0_42_247
*787 FILLER_0_42_311
*788 FILLER_0_42_317
*789 FILLER_0_42_34
*790 FILLER_0_42_37
*791 FILLER_0_43_136
*792 FILLER_0_43_168
*793 FILLER_0_43_195
*794 FILLER_0_43_203
*795 FILLER_0_43_207
*796 FILLER_0_43_209
*797 FILLER_0_43_212
*798 FILLER_0_43_276
*799 FILLER_0_43_282
*800 FILLER_0_43_346
*801 FILLER_0_43_348
*802 FILLER_0_43_6
*803 FILLER_0_43_72
*804 FILLER_0_44_104
*805 FILLER_0_44_108
*806 FILLER_0_44_138
*807 FILLER_0_44_142
*808 FILLER_0_44_172
*809 FILLER_0_44_176
*810 FILLER_0_44_2
*811 FILLER_0_44_232
*812 FILLER_0_44_236
*813 FILLER_0_44_240
*814 FILLER_0_44_274
*815 FILLER_0_44_308
*816 FILLER_0_44_342
*817 FILLER_0_44_346
*818 FILLER_0_44_348
*819 FILLER_0_44_36
*820 FILLER_0_44_70
*821 FILLER_0_4_101
*822 FILLER_0_4_107
*823 FILLER_0_4_171
*824 FILLER_0_4_177
*825 FILLER_0_4_2
*826 FILLER_0_4_241
*827 FILLER_0_4_247
*828 FILLER_0_4_311
*829 FILLER_0_4_317
*830 FILLER_0_4_34
*831 FILLER_0_4_37
*832 FILLER_0_5_136
*833 FILLER_0_5_142
*834 FILLER_0_5_2
*835 FILLER_0_5_206
*836 FILLER_0_5_212
*837 FILLER_0_5_276
*838 FILLER_0_5_282
*839 FILLER_0_5_346
*840 FILLER_0_5_348
*841 FILLER_0_5_66
*842 FILLER_0_5_72
*843 FILLER_0_6_101
*844 FILLER_0_6_107
*845 FILLER_0_6_171
*846 FILLER_0_6_177
*847 FILLER_0_6_2
*848 FILLER_0_6_241
*849 FILLER_0_6_247
*850 FILLER_0_6_311
*851 FILLER_0_6_317
*852 FILLER_0_6_34
*853 FILLER_0_6_37
*854 FILLER_0_7_136
*855 FILLER_0_7_142
*856 FILLER_0_7_2
*857 FILLER_0_7_206
*858 FILLER_0_7_212
*859 FILLER_0_7_276
*860 FILLER_0_7_282
*861 FILLER_0_7_346
*862 FILLER_0_7_348
*863 FILLER_0_7_66
*864 FILLER_0_7_72
*865 FILLER_0_8_101
*866 FILLER_0_8_107
*867 FILLER_0_8_171
*868 FILLER_0_8_177
*869 FILLER_0_8_2
*870 FILLER_0_8_241
*871 FILLER_0_8_247
*872 FILLER_0_8_311
*873 FILLER_0_8_317
*874 FILLER_0_8_34
*875 FILLER_0_8_37
*876 FILLER_0_9_136
*877 FILLER_0_9_142
*878 FILLER_0_9_2
*879 FILLER_0_9_206
*880 FILLER_0_9_212
*881 FILLER_0_9_276
*882 FILLER_0_9_282
*883 FILLER_0_9_346
*884 FILLER_0_9_348
*885 FILLER_0_9_66
*886 FILLER_0_9_72
*887 PHY_EDGE_ROW_0_Left_45
*888 PHY_EDGE_ROW_0_Right_0
*889 PHY_EDGE_ROW_10_Left_55
*890 PHY_EDGE_ROW_10_Right_10
*891 PHY_EDGE_ROW_11_Left_56
*892 PHY_EDGE_ROW_11_Right_11
*893 PHY_EDGE_ROW_12_Left_57
*894 PHY_EDGE_ROW_12_Right_12
*895 PHY_EDGE_ROW_13_Left_58
*896 PHY_EDGE_ROW_13_Right_13
*897 PHY_EDGE_ROW_14_Left_59
*898 PHY_EDGE_ROW_14_Right_14
*899 PHY_EDGE_ROW_15_Left_60
*900 PHY_EDGE_ROW_15_Right_15
*901 PHY_EDGE_ROW_16_Left_61
*902 PHY_EDGE_ROW_16_Right_16
*903 PHY_EDGE_ROW_17_Left_62
*904 PHY_EDGE_ROW_17_Right_17
*905 PHY_EDGE_ROW_18_Left_63
*906 PHY_EDGE_ROW_18_Right_18
*907 PHY_EDGE_ROW_19_Left_64
*908 PHY_EDGE_ROW_19_Right_19
*909 PHY_EDGE_ROW_1_Left_46
*910 PHY_EDGE_ROW_1_Right_1
*911 PHY_EDGE_ROW_20_Left_65
*912 PHY_EDGE_ROW_20_Right_20
*913 PHY_EDGE_ROW_21_Left_66
*914 PHY_EDGE_ROW_21_Right_21
*915 PHY_EDGE_ROW_22_Left_67
*916 PHY_EDGE_ROW_22_Right_22
*917 PHY_EDGE_ROW_23_Left_68
*918 PHY_EDGE_ROW_23_Right_23
*919 PHY_EDGE_ROW_24_Left_69
*920 PHY_EDGE_ROW_24_Right_24
*921 PHY_EDGE_ROW_25_Left_70
*922 PHY_EDGE_ROW_25_Right_25
*923 PHY_EDGE_ROW_26_Left_71
*924 PHY_EDGE_ROW_26_Right_26
*925 PHY_EDGE_ROW_27_Left_72
*926 PHY_EDGE_ROW_27_Right_27
*927 PHY_EDGE_ROW_28_Left_73
*928 PHY_EDGE_ROW_28_Right_28
*929 PHY_EDGE_ROW_29_Left_74
*930 PHY_EDGE_ROW_29_Right_29
*931 PHY_EDGE_ROW_2_Left_47
*932 PHY_EDGE_ROW_2_Right_2
*933 PHY_EDGE_ROW_30_Left_75
*934 PHY_EDGE_ROW_30_Right_30
*935 PHY_EDGE_ROW_31_Left_76
*936 PHY_EDGE_ROW_31_Right_31
*937 PHY_EDGE_ROW_32_Left_77
*938 PHY_EDGE_ROW_32_Right_32
*939 PHY_EDGE_ROW_33_Left_78
*940 PHY_EDGE_ROW_33_Right_33
*941 PHY_EDGE_ROW_34_Left_79
*942 PHY_EDGE_ROW_34_Right_34
*943 PHY_EDGE_ROW_35_Left_80
*944 PHY_EDGE_ROW_35_Right_35
*945 PHY_EDGE_ROW_36_Left_81
*946 PHY_EDGE_ROW_36_Right_36
*947 PHY_EDGE_ROW_37_Left_82
*948 PHY_EDGE_ROW_37_Right_37
*949 PHY_EDGE_ROW_38_Left_83
*950 PHY_EDGE_ROW_38_Right_38
*951 PHY_EDGE_ROW_39_Left_84
*952 PHY_EDGE_ROW_39_Right_39
*953 PHY_EDGE_ROW_3_Left_48
*954 PHY_EDGE_ROW_3_Right_3
*955 PHY_EDGE_ROW_40_Left_85
*956 PHY_EDGE_ROW_40_Right_40
*957 PHY_EDGE_ROW_41_Left_86
*958 PHY_EDGE_ROW_41_Right_41
*959 PHY_EDGE_ROW_42_Left_87
*960 PHY_EDGE_ROW_42_Right_42
*961 PHY_EDGE_ROW_43_Left_88
*962 PHY_EDGE_ROW_43_Right_43
*963 PHY_EDGE_ROW_44_Left_89
*964 PHY_EDGE_ROW_44_Right_44
*965 PHY_EDGE_ROW_4_Left_49
*966 PHY_EDGE_ROW_4_Right_4
*967 PHY_EDGE_ROW_5_Left_50
*968 PHY_EDGE_ROW_5_Right_5
*969 PHY_EDGE_ROW_6_Left_51
*970 PHY_EDGE_ROW_6_Right_6
*971 PHY_EDGE_ROW_7_Left_52
*972 PHY_EDGE_ROW_7_Right_7
*973 PHY_EDGE_ROW_8_Left_53
*974 PHY_EDGE_ROW_8_Right_8
*975 PHY_EDGE_ROW_9_Left_54
*976 PHY_EDGE_ROW_9_Right_9
*977 TAP_TAPCELL_ROW_0_90
*978 TAP_TAPCELL_ROW_0_91
*979 TAP_TAPCELL_ROW_0_92
*980 TAP_TAPCELL_ROW_0_93
*981 TAP_TAPCELL_ROW_0_94
*982 TAP_TAPCELL_ROW_0_95
*983 TAP_TAPCELL_ROW_0_96
*984 TAP_TAPCELL_ROW_0_97
*985 TAP_TAPCELL_ROW_0_98
*986 TAP_TAPCELL_ROW_0_99
*987 TAP_TAPCELL_ROW_10_140
*988 TAP_TAPCELL_ROW_10_141
*989 TAP_TAPCELL_ROW_10_142
*990 TAP_TAPCELL_ROW_10_143
*991 TAP_TAPCELL_ROW_10_144
*992 TAP_TAPCELL_ROW_11_145
*993 TAP_TAPCELL_ROW_11_146
*994 TAP_TAPCELL_ROW_11_147
*995 TAP_TAPCELL_ROW_11_148
*996 TAP_TAPCELL_ROW_12_149
*997 TAP_TAPCELL_ROW_12_150
*998 TAP_TAPCELL_ROW_12_151
*999 TAP_TAPCELL_ROW_12_152
*1000 TAP_TAPCELL_ROW_12_153
*1001 TAP_TAPCELL_ROW_13_154
*1002 TAP_TAPCELL_ROW_13_155
*1003 TAP_TAPCELL_ROW_13_156
*1004 TAP_TAPCELL_ROW_13_157
*1005 TAP_TAPCELL_ROW_14_158
*1006 TAP_TAPCELL_ROW_14_159
*1007 TAP_TAPCELL_ROW_14_160
*1008 TAP_TAPCELL_ROW_14_161
*1009 TAP_TAPCELL_ROW_14_162
*1010 TAP_TAPCELL_ROW_15_163
*1011 TAP_TAPCELL_ROW_15_164
*1012 TAP_TAPCELL_ROW_15_165
*1013 TAP_TAPCELL_ROW_15_166
*1014 TAP_TAPCELL_ROW_16_167
*1015 TAP_TAPCELL_ROW_16_168
*1016 TAP_TAPCELL_ROW_16_169
*1017 TAP_TAPCELL_ROW_16_170
*1018 TAP_TAPCELL_ROW_16_171
*1019 TAP_TAPCELL_ROW_17_172
*1020 TAP_TAPCELL_ROW_17_173
*1021 TAP_TAPCELL_ROW_17_174
*1022 TAP_TAPCELL_ROW_17_175
*1023 TAP_TAPCELL_ROW_18_176
*1024 TAP_TAPCELL_ROW_18_177
*1025 TAP_TAPCELL_ROW_18_178
*1026 TAP_TAPCELL_ROW_18_179
*1027 TAP_TAPCELL_ROW_18_180
*1028 TAP_TAPCELL_ROW_19_181
*1029 TAP_TAPCELL_ROW_19_182
*1030 TAP_TAPCELL_ROW_19_183
*1031 TAP_TAPCELL_ROW_19_184
*1032 TAP_TAPCELL_ROW_1_100
*1033 TAP_TAPCELL_ROW_1_101
*1034 TAP_TAPCELL_ROW_1_102
*1035 TAP_TAPCELL_ROW_1_103
*1036 TAP_TAPCELL_ROW_20_185
*1037 TAP_TAPCELL_ROW_20_186
*1038 TAP_TAPCELL_ROW_20_187
*1039 TAP_TAPCELL_ROW_20_188
*1040 TAP_TAPCELL_ROW_20_189
*1041 TAP_TAPCELL_ROW_21_190
*1042 TAP_TAPCELL_ROW_21_191
*1043 TAP_TAPCELL_ROW_21_192
*1044 TAP_TAPCELL_ROW_21_193
*1045 TAP_TAPCELL_ROW_22_194
*1046 TAP_TAPCELL_ROW_22_195
*1047 TAP_TAPCELL_ROW_22_196
*1048 TAP_TAPCELL_ROW_22_197
*1049 TAP_TAPCELL_ROW_22_198
*1050 TAP_TAPCELL_ROW_23_199
*1051 TAP_TAPCELL_ROW_23_200
*1052 TAP_TAPCELL_ROW_23_201
*1053 TAP_TAPCELL_ROW_23_202
*1054 TAP_TAPCELL_ROW_24_203
*1055 TAP_TAPCELL_ROW_24_204
*1056 TAP_TAPCELL_ROW_24_205
*1057 TAP_TAPCELL_ROW_24_206
*1058 TAP_TAPCELL_ROW_24_207
*1059 TAP_TAPCELL_ROW_25_208
*1060 TAP_TAPCELL_ROW_25_209
*1061 TAP_TAPCELL_ROW_25_210
*1062 TAP_TAPCELL_ROW_25_211
*1063 TAP_TAPCELL_ROW_26_212
*1064 TAP_TAPCELL_ROW_26_213
*1065 TAP_TAPCELL_ROW_26_214
*1066 TAP_TAPCELL_ROW_26_215
*1067 TAP_TAPCELL_ROW_26_216
*1068 TAP_TAPCELL_ROW_27_217
*1069 TAP_TAPCELL_ROW_27_218
*1070 TAP_TAPCELL_ROW_27_219
*1071 TAP_TAPCELL_ROW_27_220
*1072 TAP_TAPCELL_ROW_28_221
*1073 TAP_TAPCELL_ROW_28_222
*1074 TAP_TAPCELL_ROW_28_223
*1075 TAP_TAPCELL_ROW_28_224
*1076 TAP_TAPCELL_ROW_28_225
*1077 TAP_TAPCELL_ROW_29_226
*1078 TAP_TAPCELL_ROW_29_227
*1079 TAP_TAPCELL_ROW_29_228
*1080 TAP_TAPCELL_ROW_29_229
*1081 TAP_TAPCELL_ROW_2_104
*1082 TAP_TAPCELL_ROW_2_105
*1083 TAP_TAPCELL_ROW_2_106
*1084 TAP_TAPCELL_ROW_2_107
*1085 TAP_TAPCELL_ROW_2_108
*1086 TAP_TAPCELL_ROW_30_230
*1087 TAP_TAPCELL_ROW_30_231
*1088 TAP_TAPCELL_ROW_30_232
*1089 TAP_TAPCELL_ROW_30_233
*1090 TAP_TAPCELL_ROW_30_234
*1091 TAP_TAPCELL_ROW_31_235
*1092 TAP_TAPCELL_ROW_31_236
*1093 TAP_TAPCELL_ROW_31_237
*1094 TAP_TAPCELL_ROW_31_238
*1095 TAP_TAPCELL_ROW_32_239
*1096 TAP_TAPCELL_ROW_32_240
*1097 TAP_TAPCELL_ROW_32_241
*1098 TAP_TAPCELL_ROW_32_242
*1099 TAP_TAPCELL_ROW_32_243
*1100 TAP_TAPCELL_ROW_33_244
*1101 TAP_TAPCELL_ROW_33_245
*1102 TAP_TAPCELL_ROW_33_246
*1103 TAP_TAPCELL_ROW_33_247
*1104 TAP_TAPCELL_ROW_34_248
*1105 TAP_TAPCELL_ROW_34_249
*1106 TAP_TAPCELL_ROW_34_250
*1107 TAP_TAPCELL_ROW_34_251
*1108 TAP_TAPCELL_ROW_34_252
*1109 TAP_TAPCELL_ROW_35_253
*1110 TAP_TAPCELL_ROW_35_254
*1111 TAP_TAPCELL_ROW_35_255
*1112 TAP_TAPCELL_ROW_35_256
*1113 TAP_TAPCELL_ROW_36_257
*1114 TAP_TAPCELL_ROW_36_258
*1115 TAP_TAPCELL_ROW_36_259
*1116 TAP_TAPCELL_ROW_36_260
*1117 TAP_TAPCELL_ROW_36_261
*1118 TAP_TAPCELL_ROW_37_262
*1119 TAP_TAPCELL_ROW_37_263
*1120 TAP_TAPCELL_ROW_37_264
*1121 TAP_TAPCELL_ROW_37_265
*1122 TAP_TAPCELL_ROW_38_266
*1123 TAP_TAPCELL_ROW_38_267
*1124 TAP_TAPCELL_ROW_38_268
*1125 TAP_TAPCELL_ROW_38_269
*1126 TAP_TAPCELL_ROW_38_270
*1127 TAP_TAPCELL_ROW_39_271
*1128 TAP_TAPCELL_ROW_39_272
*1129 TAP_TAPCELL_ROW_39_273
*1130 TAP_TAPCELL_ROW_39_274
*1131 TAP_TAPCELL_ROW_3_109
*1132 TAP_TAPCELL_ROW_3_110
*1133 TAP_TAPCELL_ROW_3_111
*1134 TAP_TAPCELL_ROW_3_112
*1135 TAP_TAPCELL_ROW_40_275
*1136 TAP_TAPCELL_ROW_40_276
*1137 TAP_TAPCELL_ROW_40_277
*1138 TAP_TAPCELL_ROW_40_278
*1139 TAP_TAPCELL_ROW_40_279
*1140 TAP_TAPCELL_ROW_41_280
*1141 TAP_TAPCELL_ROW_41_281
*1142 TAP_TAPCELL_ROW_41_282
*1143 TAP_TAPCELL_ROW_41_283
*1144 TAP_TAPCELL_ROW_42_284
*1145 TAP_TAPCELL_ROW_42_285
*1146 TAP_TAPCELL_ROW_42_286
*1147 TAP_TAPCELL_ROW_42_287
*1148 TAP_TAPCELL_ROW_42_288
*1149 TAP_TAPCELL_ROW_43_289
*1150 TAP_TAPCELL_ROW_43_290
*1151 TAP_TAPCELL_ROW_43_291
*1152 TAP_TAPCELL_ROW_43_292
*1153 TAP_TAPCELL_ROW_44_293
*1154 TAP_TAPCELL_ROW_44_294
*1155 TAP_TAPCELL_ROW_44_295
*1156 TAP_TAPCELL_ROW_44_296
*1157 TAP_TAPCELL_ROW_44_297
*1158 TAP_TAPCELL_ROW_44_298
*1159 TAP_TAPCELL_ROW_44_299
*1160 TAP_TAPCELL_ROW_44_300
*1161 TAP_TAPCELL_ROW_44_301
*1162 TAP_TAPCELL_ROW_44_302
*1163 TAP_TAPCELL_ROW_4_113
*1164 TAP_TAPCELL_ROW_4_114
*1165 TAP_TAPCELL_ROW_4_115
*1166 TAP_TAPCELL_ROW_4_116
*1167 TAP_TAPCELL_ROW_4_117
*1168 TAP_TAPCELL_ROW_5_118
*1169 TAP_TAPCELL_ROW_5_119
*1170 TAP_TAPCELL_ROW_5_120
*1171 TAP_TAPCELL_ROW_5_121
*1172 TAP_TAPCELL_ROW_6_122
*1173 TAP_TAPCELL_ROW_6_123
*1174 TAP_TAPCELL_ROW_6_124
*1175 TAP_TAPCELL_ROW_6_125
*1176 TAP_TAPCELL_ROW_6_126
*1177 TAP_TAPCELL_ROW_7_127
*1178 TAP_TAPCELL_ROW_7_128
*1179 TAP_TAPCELL_ROW_7_129
*1180 TAP_TAPCELL_ROW_7_130
*1181 TAP_TAPCELL_ROW_8_131
*1182 TAP_TAPCELL_ROW_8_132
*1183 TAP_TAPCELL_ROW_8_133
*1184 TAP_TAPCELL_ROW_8_134
*1185 TAP_TAPCELL_ROW_8_135
*1186 TAP_TAPCELL_ROW_9_136
*1187 TAP_TAPCELL_ROW_9_137
*1188 TAP_TAPCELL_ROW_9_138
*1189 TAP_TAPCELL_ROW_9_139
*1190 _097_
*1191 _098_
*1192 _099_
*1193 _100_
*1194 _101_
*1195 _102_
*1196 _103_
*1197 _104_
*1198 _105_
*1199 _106_
*1200 _107_
*1201 _108_
*1202 _109_
*1203 _110_
*1204 _111_
*1205 _112_
*1206 _113_
*1207 _114_
*1208 _115_
*1209 _116_
*1210 _117_
*1211 _118_
*1212 _119_
*1213 _120_
*1214 _121_
*1215 _122_
*1216 _123_
*1217 _124_
*1218 _125_
*1219 _126_
*1220 _127_
*1221 _128_
*1222 _129_
*1223 _130_
*1224 _131_
*1225 _132_
*1226 _133_
*1227 _134_
*1228 _135_
*1229 _136_
*1230 _137_
*1231 _138_
*1232 _139_
*1233 _140_
*1234 _141_
*1235 _142_
*1236 _143_
*1237 _144_
*1238 _145_
*1239 _146_
*1240 _147_
*1241 _148_
*1242 _149_
*1243 _150_
*1244 _151_
*1245 _152_
*1246 _153_
*1247 _154_
*1248 _155_
*1249 _156_
*1250 _157_
*1251 _158_
*1252 _159_
*1253 _160_
*1254 _161_
*1255 _162_
*1256 _163_
*1257 _164_
*1258 _165_
*1259 _166_
*1260 _167_
*1261 _168_
*1262 _169_
*1263 _170_
*1264 _171_
*1265 _172_
*1266 _173_
*1267 _174_
*1268 _175_
*1269 _176_
*1270 _177_
*1271 _178_
*1272 _179_
*1273 _180_
*1274 _181_
*1275 _182_
*1276 _183_
*1277 _184_
*1278 _185_
*1279 _186_
*1280 _187_
*1281 _188_
*1282 _189_
*1283 _190_
*1284 _191_
*1285 _192_
*1286 _193_
*1287 _194_
*1288 _195_
*1289 _196_
*1290 _197_
*1291 _198_
*1292 _199_
*1293 _200_
*1294 _201_
*1295 _202_
*1296 _203_
*1297 _204_
*1298 _205_
*1299 _206_
*1300 _207_
*1301 _208_
*1302 _209_
*1303 _210_
*1304 _211_
*1305 _212_
*1306 _213_
*1307 _214_
*1308 _215_
*1309 _216_
*1310 _217_
*1311 _218_
*1312 _220_
*1313 _221_
*1314 _222_
*1315 _223_
*1316 clkbuf_0_clk
*1317 clkbuf_1_0__f_clk
*1318 clkbuf_1_1__f_clk
*1319 ita19_26
*1320 output1
*1321 output10
*1322 output11
*1323 output12
*1324 output13
*1325 output14
*1326 output15
*1327 output16
*1328 output17
*1329 output18
*1330 output19
*1331 output2
*1332 output20
*1333 output21
*1334 output22
*1335 output23
*1336 output24
*1337 output25
*1338 output3
*1339 output4
*1340 output5
*1341 output6
*1342 output7
*1343 output8
*1344 output9

*PORTS
clk I
segm[0] O
segm[10] O
segm[11] O
segm[12] O
segm[13] O
segm[1] O
segm[2] O
segm[3] O
segm[4] O
segm[5] O
segm[6] O
segm[7] O
segm[8] O
segm[9] O
sel[0] O
sel[10] O
sel[11] O
sel[1] O
sel[2] O
sel[3] O
sel[4] O
sel[5] O
sel[6] O
sel[7] O
sel[8] O
sel[9] O

*D_NET *1 0.0173358
*CONN
*P clk I
*I *184:I I *D gf180mcu_fd_sc_mcu7t5v0__antenna
*I *1316:I I *D gf180mcu_fd_sc_mcu7t5v0__clkbuf_16
*CAP
1 clk 0.00260854
2 *184:I 8.48539e-05
3 *1316:I 0.000135227
4 *1:15 0.00210553
5 *1:11 0.00449399
6 *1316:I *1233:A1 3.4596e-05
7 *1316:I *1284:B2 0
8 *1316:I *105:6 0.000398048
9 *1:15 *1225:A2 0.000105902
10 *1:15 *1226:A1 0.000386365
11 *1:15 *1233:A1 0.000107648
12 *1:15 *1283:A2 0.000199998
13 *1:15 *1284:B2 0.000810629
14 *1:15 *1293:D 0
15 *1:15 *1293:CLK 0.00154618
16 *1:15 *1324:I 0.000686834
17 *1:15 *101:18 7.92571e-05
18 *1:15 *116:23 0.00190503
19 *1:15 *117:10 0.000988214
20 *1:15 *129:50 0.000658946
21 *1:15 *132:14 0
22 *1:15 *133:18 0
*RES
1 clk *1:11 27.044 
2 *1:11 *1:15 31.436 
3 *1:15 *1316:I 5.644 
4 *1:15 *184:I 5.228 
*END

*D_NET *2 0.000651023
*CONN
*P segm[0] O
*I *1319:ZN O *D gf180mcu_fd_sc_mcu7t5v0__tiel
*CAP
1 segm[0] 0.000325511
2 *1319:ZN 0.000325511
*RES
1 *1319:ZN segm[0] 11.652 
*END

*D_NET *3 0.00264841
*CONN
*P segm[10] O
*I *1320:Z O *D gf180mcu_fd_sc_mcu7t5v0__buf_8
*CAP
1 segm[10] 0.00122206
2 *1320:Z 0.00122206
3 segm[10] sel[10] 0.00020428
*RES
1 *1320:Z segm[10] 24.056 
*END

*D_NET *4 0.000621678
*CONN
*P segm[11] O
*I *1331:Z O *D gf180mcu_fd_sc_mcu7t5v0__buf_8
*CAP
1 segm[11] 0.000310839
2 *1331:Z 0.000310839
*RES
1 *1331:Z segm[11] 11.86 
*END

*D_NET *5 0.00199299
*CONN
*P segm[12] O
*I *1338:Z O *D gf180mcu_fd_sc_mcu7t5v0__buf_8
*CAP
1 segm[12] 0.000975593
2 *1338:Z 0.000975593
3 segm[12] *1338:I 4.18042e-05
*RES
1 *1338:Z segm[12] 21.352 
*END

*D_NET *6 0.000876856
*CONN
*P segm[13] O
*I *1339:Z O *D gf180mcu_fd_sc_mcu7t5v0__buf_8
*CAP
1 segm[13] 0.000403933
2 *1339:Z 0.000403933
3 segm[13] segm[8] 6.89904e-05
*RES
1 *1339:Z segm[13] 12.276 
*END

*D_NET *7 0.000698543
*CONN
*P segm[1] O
*I *1340:Z O *D gf180mcu_fd_sc_mcu7t5v0__buf_8
*CAP
1 segm[1] 0.000314775
2 *1340:Z 0.000314775
3 segm[1] segm[4] 6.8994e-05
*RES
1 *1340:Z segm[1] 11.86 
*END

*D_NET *8 0.00103202
*CONN