*SPEF "ieee 1481-1999"
*DESIGN "ita16"
*DATE "11:11:11 Fri 11 11, 1111"
*VENDOR "OpenRCX"
*PROGRAM "Parallel Extraction"
*VERSION "1.0"
*DESIGN_FLOW "NAME_SCOPE LOCAL" "PIN_CAP NONE"
*DIVIDER /
*DELIMITER :
*BUS_DELIMITER []
*T_UNIT 1 NS
*C_UNIT 1 PF
*R_UNIT 1 OHM
*L_UNIT 1 HENRY

*NAME_MAP
*1 clk
*2 segm[0]
*3 segm[10]
*4 segm[11]
*5 segm[12]
*6 segm[13]
*7 segm[1]
*8 segm[2]
*9 segm[3]
*10 segm[4]
*11 segm[5]
*12 segm[6]
*13 segm[7]
*14 segm[8]
*15 segm[9]
*16 sel[0]
*17 sel[10]
*18 sel[11]
*19 sel[1]
*20 sel[2]
*21 sel[3]
*22 sel[4]
*23 sel[5]
*24 sel[6]
*25 sel[7]
*26 sel[8]
*27 sel[9]
*30 _000_
*31 _001_
*32 _002_
*33 _003_
*34 _004_
*35 _005_
*36 _006_
*37 _007_
*38 _008_
*39 _009_
*40 _010_
*41 _011_
*42 _012_
*43 _013_
*44 _014_
*45 _015_
*46 _016_
*47 _017_
*48 _018_
*49 _019_
*50 _020_
*51 _021_
*52 _022_
*53 _023_
*54 _024_
*55 _025_
*56 _026_
*57 _027_
*58 _028_
*59 _029_
*60 _030_
*61 _031_
*62 _032_
*63 _033_
*64 _034_
*65 _035_
*66 _036_
*67 _037_
*68 _038_
*69 _039_
*70 _040_
*71 _041_
*72 _042_
*73 _043_
*74 _044_
*75 _045_
*76 _046_
*77 _047_
*78 _048_
*79 _049_
*80 _050_
*81 _051_
*82 _052_
*83 _053_
*84 _054_
*85 _055_
*86 _056_
*87 _057_
*88 _058_
*89 _059_
*90 _060_
*91 _061_
*92 _062_
*93 _063_
*94 _064_
*95 _065_
*96 _066_
*97 _067_
*98 _068_
*99 _069_
*100 _070_
*101 _071_
*102 _072_
*103 _073_
*104 _074_
*105 _075_
*106 _076_
*107 _077_
*108 _078_
*109 _079_
*110 _080_
*111 _081_
*112 _082_
*113 _083_
*114 _084_
*115 _085_
*116 _086_
*117 _087_
*118 _088_
*119 _089_
*120 _090_
*121 _091_
*122 _092_
*123 _093_
*124 clknet_0_clk
*125 clknet_1_0__leaf_clk
*126 clknet_1_1__leaf_clk
*127 dut16\.count\[0\]
*128 dut16\.count\[1\]
*129 dut16\.count\[2\]
*130 dut16\.count\[3\]
*131 net1
*132 net10
*133 net11
*134 net12
*135 net13
*136 net14
*137 net15
*138 net16
*139 net17
*140 net18
*141 net19
*142 net2
*143 net20
*144 net21
*145 net22
*146 net23
*147 net24
*148 net25
*149 net26
*150 net3
*151 net4
*152 net5
*153 net6
*154 net7
*155 net8
*156 net9
*157 ANTENNA__188__CLK
*158 ANTENNA__189__CLK
*159 ANTENNA__190__CLK
*160 ANTENNA__191__CLK
*161 ANTENNA__192__CLK
*162 ANTENNA__193__CLK
*163 ANTENNA__194__CLK
*164 ANTENNA__195__CLK
*165 ANTENNA__196__CLK
*166 ANTENNA__197__CLK
*167 ANTENNA__198__CLK
*168 ANTENNA__199__CLK
*169 ANTENNA__200__CLK
*170 ANTENNA__201__CLK
*171 ANTENNA__202__CLK
*172 ANTENNA__203__CLK
*173 ANTENNA__204__CLK
*174 ANTENNA__205__CLK
*175 ANTENNA__206__CLK
*176 ANTENNA__207__CLK
*177 ANTENNA__208__CLK
*178 ANTENNA__209__CLK
*179 ANTENNA__210__CLK
*180 ANTENNA__211__CLK
*181 ANTENNA_clkbuf_0_clk_I
*182 FILLER_0_0_104
*183 FILLER_0_0_138
*184 FILLER_0_0_142
*185 FILLER_0_0_172
*186 FILLER_0_0_174
*187 FILLER_0_0_2
*188 FILLER_0_0_201
*189 FILLER_0_0_203
*190 FILLER_0_0_206
*191 FILLER_0_0_240
*192 FILLER_0_0_274
*193 FILLER_0_0_308
*194 FILLER_0_0_342
*195 FILLER_0_0_346
*196 FILLER_0_0_348
*197 FILLER_0_0_36
*198 FILLER_0_0_70
*199 FILLER_0_10_101
*200 FILLER_0_10_107
*201 FILLER_0_10_171
*202 FILLER_0_10_177
*203 FILLER_0_10_2
*204 FILLER_0_10_241
*205 FILLER_0_10_247
*206 FILLER_0_10_311
*207 FILLER_0_10_317
*208 FILLER_0_10_34
*209 FILLER_0_10_37
*210 FILLER_0_11_136
*211 FILLER_0_11_142
*212 FILLER_0_11_2
*213 FILLER_0_11_206
*214 FILLER_0_11_212
*215 FILLER_0_11_276
*216 FILLER_0_11_282
*217 FILLER_0_11_346
*218 FILLER_0_11_348
*219 FILLER_0_11_66
*220 FILLER_0_11_72
*221 FILLER_0_12_101
*222 FILLER_0_12_107
*223 FILLER_0_12_123
*224 FILLER_0_12_154
*225 FILLER_0_12_158
*226 FILLER_0_12_174
*227 FILLER_0_12_177
*228 FILLER_0_12_2
*229 FILLER_0_12_241
*230 FILLER_0_12_247
*231 FILLER_0_12_311
*232 FILLER_0_12_317
*233 FILLER_0_12_34
*234 FILLER_0_12_37
*235 FILLER_0_13_136
*236 FILLER_0_13_142
*237 FILLER_0_13_144
*238 FILLER_0_13_151
*239 FILLER_0_13_155
*240 FILLER_0_13_185
*241 FILLER_0_13_189
*242 FILLER_0_13_197
*243 FILLER_0_13_2
*244 FILLER_0_13_201
*245 FILLER_0_13_203
*246 FILLER_0_13_206
*247 FILLER_0_13_212
*248 FILLER_0_13_276
*249 FILLER_0_13_282
*250 FILLER_0_13_346
*251 FILLER_0_13_348
*252 FILLER_0_13_66
*253 FILLER_0_13_72
*254 FILLER_0_14_101
*255 FILLER_0_14_107
*256 FILLER_0_14_115
*257 FILLER_0_14_119
*258 FILLER_0_14_167
*259 FILLER_0_14_2
*260 FILLER_0_14_235
*261 FILLER_0_14_243
*262 FILLER_0_14_247
*263 FILLER_0_14_311
*264 FILLER_0_14_317
*265 FILLER_0_14_34
*266 FILLER_0_14_37
*267 FILLER_0_15_136
*268 FILLER_0_15_142
*269 FILLER_0_15_146
*270 FILLER_0_15_155
*271 FILLER_0_15_159
*272 FILLER_0_15_161
*273 FILLER_0_15_170
*274 FILLER_0_15_187
*275 FILLER_0_15_195
*276 FILLER_0_15_197
*277 FILLER_0_15_2
*278 FILLER_0_15_204
*279 FILLER_0_15_208
*280 FILLER_0_15_225
*281 FILLER_0_15_257
*282 FILLER_0_15_273
*283 FILLER_0_15_277
*284 FILLER_0_15_279
*285 FILLER_0_15_282
*286 FILLER_0_15_346
*287 FILLER_0_15_348
*288 FILLER_0_15_66
*289 FILLER_0_15_72
*290 FILLER_0_16_101
*291 FILLER_0_16_136
*292 FILLER_0_16_140
*293 FILLER_0_16_156
*294 FILLER_0_16_163
*295 FILLER_0_16_171
*296 FILLER_0_16_183
*297 FILLER_0_16_191
*298 FILLER_0_16_193
*299 FILLER_0_16_2
*300 FILLER_0_16_206
*301 FILLER_0_16_238
*302 FILLER_0_16_242
*303 FILLER_0_16_244
*304 FILLER_0_16_247
*305 FILLER_0_16_311
*306 FILLER_0_16_317
*307 FILLER_0_16_34
*308 FILLER_0_16_37
*309 FILLER_0_17_122
*310 FILLER_0_17_134
*311 FILLER_0_17_138
*312 FILLER_0_17_142
*313 FILLER_0_17_2
*314 FILLER_0_17_208
*315 FILLER_0_17_212
*316 FILLER_0_17_216
*317 FILLER_0_17_218
*318 FILLER_0_17_231
*319 FILLER_0_17_263
*320 FILLER_0_17_279
*321 FILLER_0_17_282
*322 FILLER_0_17_346
*323 FILLER_0_17_348
*324 FILLER_0_17_66
*325 FILLER_0_17_72
*326 FILLER_0_17_88
*327 FILLER_0_17_92
*328 FILLER_0_18_101
*329 FILLER_0_18_107
*330 FILLER_0_18_115
*331 FILLER_0_18_134
*332 FILLER_0_18_142
*333 FILLER_0_18_144
*334 FILLER_0_18_151
*335 FILLER_0_18_155
*336 FILLER_0_18_163
*337 FILLER_0_18_172
*338 FILLER_0_18_174
*339 FILLER_0_18_183
*340 FILLER_0_18_197
*341 FILLER_0_18_251
*342 FILLER_0_18_28
*343 FILLER_0_18_317
*344 FILLER_0_18_32
*345 FILLER_0_18_321
*346 FILLER_0_18_34
*347 FILLER_0_18_37
*348 FILLER_0_19_104
*349 FILLER_0_19_112
*350 FILLER_0_19_116
*351 FILLER_0_19_118
*352 FILLER_0_19_125
*353 FILLER_0_19_133
*354 FILLER_0_19_142
*355 FILLER_0_19_146
*356 FILLER_0_19_161
*357 FILLER_0_19_173
*358 FILLER_0_19_175
*359 FILLER_0_19_196
*360 FILLER_0_19_198
*361 FILLER_0_19_2
*362 FILLER_0_19_209
*363 FILLER_0_19_218
*364 FILLER_0_19_220
*365 FILLER_0_19_252
*366 FILLER_0_19_268
*367 FILLER_0_19_276
*368 FILLER_0_19_282
*369 FILLER_0_19_346
*370 FILLER_0_19_348
*371 FILLER_0_19_66
*372 FILLER_0_19_72
*373 FILLER_0_1_136
*374 FILLER_0_1_142
*375 FILLER_0_1_150
*376 FILLER_0_1_154
*377 FILLER_0_1_156
*378 FILLER_0_1_183
*379 FILLER_0_1_199
*380 FILLER_0_1_2
*381 FILLER_0_1_207
*382 FILLER_0_1_209
*383 FILLER_0_1_212
*384 FILLER_0_1_220
*385 FILLER_0_1_222
*386 FILLER_0_1_249
*387 FILLER_0_1_265
*388 FILLER_0_1_273
*389 FILLER_0_1_277
*390 FILLER_0_1_279
*391 FILLER_0_1_282
*392 FILLER_0_1_346
*393 FILLER_0_1_348
*394 FILLER_0_1_66
*395 FILLER_0_1_72
*396 FILLER_0_20_103
*397 FILLER_0_20_107
*398 FILLER_0_20_111
*399 FILLER_0_20_123
*400 FILLER_0_20_131
*401 FILLER_0_20_135
*402 FILLER_0_20_147
*403 FILLER_0_20_159
*404 FILLER_0_20_173
*405 FILLER_0_20_177
*406 FILLER_0_20_2
*407 FILLER_0_20_210
*408 FILLER_0_20_212
*409 FILLER_0_20_231
*410 FILLER_0_20_239
*411 FILLER_0_20_244
*412 FILLER_0_20_247
*413 FILLER_0_20_311
*414 FILLER_0_20_317
*415 FILLER_0_20_321
*416 FILLER_0_20_34
*417 FILLER_0_20_37
*418 FILLER_0_20_69
*419 FILLER_0_20_85
*420 FILLER_0_20_93
*421 FILLER_0_20_97
*422 FILLER_0_21_114
*423 FILLER_0_21_116
*424 FILLER_0_21_129
*425 FILLER_0_21_139
*426 FILLER_0_21_150
*427 FILLER_0_21_217
*428 FILLER_0_21_221
*429 FILLER_0_21_253
*430 FILLER_0_21_269
*431 FILLER_0_21_277
*432 FILLER_0_21_279
*433 FILLER_0_21_28
*434 FILLER_0_21_282
*435 FILLER_0_21_346
*436 FILLER_0_21_348
*437 FILLER_0_21_60
*438 FILLER_0_21_68
*439 FILLER_0_21_72
*440 FILLER_0_21_80
*441 FILLER_0_21_84
*442 FILLER_0_22_101
*443 FILLER_0_22_107
*444 FILLER_0_22_111
*445 FILLER_0_22_113
*446 FILLER_0_22_116
*447 FILLER_0_22_148
*448 FILLER_0_22_164
*449 FILLER_0_22_172
*450 FILLER_0_22_174
*451 FILLER_0_22_183
*452 FILLER_0_22_185
*453 FILLER_0_22_192
*454 FILLER_0_22_2
*455 FILLER_0_22_224
*456 FILLER_0_22_240
*457 FILLER_0_22_244
*458 FILLER_0_22_247
*459 FILLER_0_22_311
*460 FILLER_0_22_317
*461 FILLER_0_22_321
*462 FILLER_0_22_34
*463 FILLER_0_22_37
*464 FILLER_0_23_125
*465 FILLER_0_23_127
*466 FILLER_0_23_132
*467 FILLER_0_23_136
*468 FILLER_0_23_152
*469 FILLER_0_23_160
*470 FILLER_0_23_164
*471 FILLER_0_23_170
*472 FILLER_0_23_186
*473 FILLER_0_23_2
*474 FILLER_0_23_212
*475 FILLER_0_23_219
*476 FILLER_0_23_252
*477 FILLER_0_23_268
*478 FILLER_0_23_276
*479 FILLER_0_23_282
*480 FILLER_0_23_314
*481 FILLER_0_23_322
*482 FILLER_0_23_66
*483 FILLER_0_23_72
*484 FILLER_0_23_88
*485 FILLER_0_24_101
*486 FILLER_0_24_107
*487 FILLER_0_24_115
*488 FILLER_0_24_122
*489 FILLER_0_24_126
*490 FILLER_0_24_134
*491 FILLER_0_24_152
*492 FILLER_0_24_156
*493 FILLER_0_24_165
*494 FILLER_0_24_177
*495 FILLER_0_24_197
*496 FILLER_0_24_2
*497 FILLER_0_24_240
*498 FILLER_0_24_244
*499 FILLER_0_24_259
*500 FILLER_0_24_291
*501 FILLER_0_24_307
*502 FILLER_0_24_317
*503 FILLER_0_24_321
*504 FILLER_0_24_34
*505 FILLER_0_24_37
*506 FILLER_0_25_118
*507 FILLER_0_25_120
*508 FILLER_0_25_129
*509 FILLER_0_25_137
*510 FILLER_0_25_139
*511 FILLER_0_25_142
*512 FILLER_0_25_144
*513 FILLER_0_25_163
*514 FILLER_0_25_167
*515 FILLER_0_25_169
*516 FILLER_0_25_205
*517 FILLER_0_25_209
*518 FILLER_0_25_212
*519 FILLER_0_25_276
*520 FILLER_0_25_28
*521 FILLER_0_25_282
*522 FILLER_0_25_314
*523 FILLER_0_25_322
*524 FILLER_0_25_60
*525 FILLER_0_25_68
*526 FILLER_0_25_72
*527 FILLER_0_25_88
*528 FILLER_0_26_101
*529 FILLER_0_26_107
*530 FILLER_0_26_115
*531 FILLER_0_26_130
*532 FILLER_0_26_138
*533 FILLER_0_26_148
*534 FILLER_0_26_164
*535 FILLER_0_26_172
*536 FILLER_0_26_174
*537 FILLER_0_26_177
*538 FILLER_0_26_2
*539 FILLER_0_26_241
*540 FILLER_0_26_247
*541 FILLER_0_26_311
*542 FILLER_0_26_317
*543 FILLER_0_26_321
*544 FILLER_0_26_34
*545 FILLER_0_26_37
*546 FILLER_0_27_131
*547 FILLER_0_27_135
*548 FILLER_0_27_139
*549 FILLER_0_27_155
*550 FILLER_0_27_159
*551 FILLER_0_27_233
*552 FILLER_0_27_265
*553 FILLER_0_27_273
*554 FILLER_0_27_277
*555 FILLER_0_27_279
*556 FILLER_0_27_28
*557 FILLER_0_27_282
*558 FILLER_0_27_314
*559 FILLER_0_27_322
*560 FILLER_0_27_60
*561 FILLER_0_27_68
*562 FILLER_0_27_72
*563 FILLER_0_27_88
*564 FILLER_0_27_92
*565 FILLER_0_28_101
*566 FILLER_0_28_107
*567 FILLER_0_28_115
*568 FILLER_0_28_119
*569 FILLER_0_28_125
*570 FILLER_0_28_162
*571 FILLER_0_28_166
*572 FILLER_0_28_174
*573 FILLER_0_28_177
*574 FILLER_0_28_181
*575 FILLER_0_28_191
*576 FILLER_0_28_197
*577 FILLER_0_28_199
*578 FILLER_0_28_241
*579 FILLER_0_28_247
*580 FILLER_0_28_28
*581 FILLER_0_28_311
*582 FILLER_0_28_317
*583 FILLER_0_28_32
*584 FILLER_0_28_321
*585 FILLER_0_28_34
*586 FILLER_0_28_37
*587 FILLER_0_29_120
*588 FILLER_0_29_124
*589 FILLER_0_29_157
*590 FILLER_0_29_159
*591 FILLER_0_29_165
*592 FILLER_0_29_2
*593 FILLER_0_29_202
*594 FILLER_0_29_206
*595 FILLER_0_29_212
*596 FILLER_0_29_249
*597 FILLER_0_29_265
*598 FILLER_0_29_273
*599 FILLER_0_29_277
*600 FILLER_0_29_279
*601 FILLER_0_29_282
*602 FILLER_0_29_314
*603 FILLER_0_29_322
*604 FILLER_0_29_66
*605 FILLER_0_29_72
*606 FILLER_0_29_88
*607 FILLER_0_29_90
*608 FILLER_0_2_101
*609 FILLER_0_2_107
*610 FILLER_0_2_171
*611 FILLER_0_2_177
*612 FILLER_0_2_2
*613 FILLER_0_2_241
*614 FILLER_0_2_247
*615 FILLER_0_2_311
*616 FILLER_0_2_317
*617 FILLER_0_2_34
*618 FILLER_0_2_37
*619 FILLER_0_30_101
*620 FILLER_0_30_107
*621 FILLER_0_30_123
*622 FILLER_0_30_131
*623 FILLER_0_30_135
*624 FILLER_0_30_166
*625 FILLER_0_30_170
*626 FILLER_0_30_174
*627 FILLER_0_30_190
*628 FILLER_0_30_2
*629 FILLER_0_30_206
*630 FILLER_0_30_210
*631 FILLER_0_30_214
*632 FILLER_0_30_227
*633 FILLER_0_30_243
*634 FILLER_0_30_247
*635 FILLER_0_30_311
*636 FILLER_0_30_317
*637 FILLER_0_30_321
*638 FILLER_0_30_34
*639 FILLER_0_30_37
*640 FILLER_0_31_136
*641 FILLER_0_31_142
*642 FILLER_0_31_158
*643 FILLER_0_31_162
*644 FILLER_0_31_192
*645 FILLER_0_31_196
*646 FILLER_0_31_2
*647 FILLER_0_31_204
*648 FILLER_0_31_208
*649 FILLER_0_31_212
*650 FILLER_0_31_276
*651 FILLER_0_31_282
*652 FILLER_0_31_314
*653 FILLER_0_31_322
*654 FILLER_0_31_66
*655 FILLER_0_31_72
*656 FILLER_0_32_101
*657 FILLER_0_32_107
*658 FILLER_0_32_171
*659 FILLER_0_32_177
*660 FILLER_0_32_2
*661 FILLER_0_32_241
*662 FILLER_0_32_247
*663 FILLER_0_32_311
*664 FILLER_0_32_317
*665 FILLER_0_32_34
*666 FILLER_0_32_37
*667 FILLER_0_33_136
*668 FILLER_0_33_142
*669 FILLER_0_33_2
*670 FILLER_0_33_206
*671 FILLER_0_33_212
*672 FILLER_0_33_276
*673 FILLER_0_33_282
*674 FILLER_0_33_346
*675 FILLER_0_33_348
*676 FILLER_0_33_66
*677 FILLER_0_33_72
*678 FILLER_0_34_101
*679 FILLER_0_34_107
*680 FILLER_0_34_171
*681 FILLER_0_34_177
*682 FILLER_0_34_2
*683 FILLER_0_34_241
*684 FILLER_0_34_247
*685 FILLER_0_34_311
*686 FILLER_0_34_317
*687 FILLER_0_34_34
*688 FILLER_0_34_37
*689 FILLER_0_35_136
*690 FILLER_0_35_142
*691 FILLER_0_35_2
*692 FILLER_0_35_206
*693 FILLER_0_35_212
*694 FILLER_0_35_276
*695 FILLER_0_35_282
*696 FILLER_0_35_346
*697 FILLER_0_35_348
*698 FILLER_0_35_66
*699 FILLER_0_35_72
*700 FILLER_0_36_101
*701 FILLER_0_36_107
*702 FILLER_0_36_171
*703 FILLER_0_36_177
*704 FILLER_0_36_2
*705 FILLER_0_36_241
*706 FILLER_0_36_247
*707 FILLER_0_36_311
*708 FILLER_0_36_317
*709 FILLER_0_36_34
*710 FILLER_0_36_37
*711 FILLER_0_37_136
*712 FILLER_0_37_142
*713 FILLER_0_37_2
*714 FILLER_0_37_206
*715 FILLER_0_37_212
*716 FILLER_0_37_276
*717 FILLER_0_37_282
*718 FILLER_0_37_346
*719 FILLER_0_37_348
*720 FILLER_0_37_66
*721 FILLER_0_37_72
*722 FILLER_0_38_101
*723 FILLER_0_38_107
*724 FILLER_0_38_171
*725 FILLER_0_38_177
*726 FILLER_0_38_2
*727 FILLER_0_38_241
*728 FILLER_0_38_247
*729 FILLER_0_38_311
*730 FILLER_0_38_317
*731 FILLER_0_38_34
*732 FILLER_0_38_37
*733 FILLER_0_39_136
*734 FILLER_0_39_142
*735 FILLER_0_39_2
*736 FILLER_0_39_206
*737 FILLER_0_39_212
*738 FILLER_0_39_276
*739 FILLER_0_39_282
*740 FILLER_0_39_346
*741 FILLER_0_39_348
*742 FILLER_0_39_66
*743 FILLER_0_39_72
*744 FILLER_0_3_136
*745 FILLER_0_3_142
*746 FILLER_0_3_2
*747 FILLER_0_3_206
*748 FILLER_0_3_212
*749 FILLER_0_3_276
*750 FILLER_0_3_282
*751 FILLER_0_3_346
*752 FILLER_0_3_348
*753 FILLER_0_3_66
*754 FILLER_0_3_72
*755 FILLER_0_40_101
*756 FILLER_0_40_107
*757 FILLER_0_40_171
*758 FILLER_0_40_177
*759 FILLER_0_40_2
*760 FILLER_0_40_241
*761 FILLER_0_40_247
*762 FILLER_0_40_311
*763 FILLER_0_40_317
*764 FILLER_0_40_34
*765 FILLER_0_40_37
*766 FILLER_0_41_136
*767 FILLER_0_41_142
*768 FILLER_0_41_2
*769 FILLER_0_41_206
*770 FILLER_0_41_212
*771 FILLER_0_41_276
*772 FILLER_0_41_282
*773 FILLER_0_41_346
*774 FILLER_0_41_348
*775 FILLER_0_41_66
*776 FILLER_0_41_72
*777 FILLER_0_42_101
*778 FILLER_0_42_107
*779 FILLER_0_42_139
*780 FILLER_0_42_147
*781 FILLER_0_42_177
*782 FILLER_0_42_2
*783 FILLER_0_42_241
*784 FILLER_0_42_247
*785 FILLER_0_42_311
*786 FILLER_0_42_317
*787 FILLER_0_42_34
*788 FILLER_0_42_37
*789 FILLER_0_43_136
*790 FILLER_0_43_142
*791 FILLER_0_43_158
*792 FILLER_0_43_162
*793 FILLER_0_43_189
*794 FILLER_0_43_2
*795 FILLER_0_43_205
*796 FILLER_0_43_209
*797 FILLER_0_43_212
*798 FILLER_0_43_276
*799 FILLER_0_43_282
*800 FILLER_0_43_346
*801 FILLER_0_43_348
*802 FILLER_0_43_66
*803 FILLER_0_43_72
*804 FILLER_0_44_104
*805 FILLER_0_44_138
*806 FILLER_0_44_142
*807 FILLER_0_44_172
*808 FILLER_0_44_176
*809 FILLER_0_44_2
*810 FILLER_0_44_232
*811 FILLER_0_44_236
*812 FILLER_0_44_240
*813 FILLER_0_44_274
*814 FILLER_0_44_308
*815 FILLER_0_44_342
*816 FILLER_0_44_346
*817 FILLER_0_44_348
*818 FILLER_0_44_36
*819 FILLER_0_44_70
*820 FILLER_0_4_101
*821 FILLER_0_4_107
*822 FILLER_0_4_171
*823 FILLER_0_4_177
*824 FILLER_0_4_2
*825 FILLER_0_4_241
*826 FILLER_0_4_247
*827 FILLER_0_4_311
*828 FILLER_0_4_317
*829 FILLER_0_4_34
*830 FILLER_0_4_37
*831 FILLER_0_5_136
*832 FILLER_0_5_142
*833 FILLER_0_5_2
*834 FILLER_0_5_206
*835 FILLER_0_5_212
*836 FILLER_0_5_276
*837 FILLER_0_5_282
*838 FILLER_0_5_346
*839 FILLER_0_5_348
*840 FILLER_0_5_66
*841 FILLER_0_5_72
*842 FILLER_0_6_101
*843 FILLER_0_6_107
*844 FILLER_0_6_171
*845 FILLER_0_6_177
*846 FILLER_0_6_2
*847 FILLER_0_6_241
*848 FILLER_0_6_247
*849 FILLER_0_6_311
*850 FILLER_0_6_317
*851 FILLER_0_6_34
*852 FILLER_0_6_37
*853 FILLER_0_7_136
*854 FILLER_0_7_142
*855 FILLER_0_7_2
*856 FILLER_0_7_206
*857 FILLER_0_7_212
*858 FILLER_0_7_276
*859 FILLER_0_7_282
*860 FILLER_0_7_346
*861 FILLER_0_7_348
*862 FILLER_0_7_66
*863 FILLER_0_7_72
*864 FILLER_0_8_101
*865 FILLER_0_8_107
*866 FILLER_0_8_171
*867 FILLER_0_8_177
*868 FILLER_0_8_2
*869 FILLER_0_8_241
*870 FILLER_0_8_247
*871 FILLER_0_8_311
*872 FILLER_0_8_317
*873 FILLER_0_8_34
*874 FILLER_0_8_37
*875 FILLER_0_9_136
*876 FILLER_0_9_142
*877 FILLER_0_9_2
*878 FILLER_0_9_206
*879 FILLER_0_9_212
*880 FILLER_0_9_276
*881 FILLER_0_9_282
*882 FILLER_0_9_346
*883 FILLER_0_9_348
*884 FILLER_0_9_66
*885 FILLER_0_9_72
*886 PHY_EDGE_ROW_0_Left_45
*887 PHY_EDGE_ROW_0_Right_0
*888 PHY_EDGE_ROW_10_Left_55
*889 PHY_EDGE_ROW_10_Right_10
*890 PHY_EDGE_ROW_11_Left_56
*891 PHY_EDGE_ROW_11_Right_11
*892 PHY_EDGE_ROW_12_Left_57
*893 PHY_EDGE_ROW_12_Right_12
*894 PHY_EDGE_ROW_13_Left_58
*895 PHY_EDGE_ROW_13_Right_13
*896 PHY_EDGE_ROW_14_Left_59
*897 PHY_EDGE_ROW_14_Right_14
*898 PHY_EDGE_ROW_15_Left_60
*899 PHY_EDGE_ROW_15_Right_15
*900 PHY_EDGE_ROW_16_Left_61
*901 PHY_EDGE_ROW_16_Right_16
*902 PHY_EDGE_ROW_17_Left_62
*903 PHY_EDGE_ROW_17_Right_17
*904 PHY_EDGE_ROW_18_Left_63
*905 PHY_EDGE_ROW_18_Right_18
*906 PHY_EDGE_ROW_19_Left_64
*907 PHY_EDGE_ROW_19_Right_19
*908 PHY_EDGE_ROW_1_Left_46
*909 PHY_EDGE_ROW_1_Right_1
*910 PHY_EDGE_ROW_20_Left_65
*911 PHY_EDGE_ROW_20_Right_20
*912 PHY_EDGE_ROW_21_Left_66
*913 PHY_EDGE_ROW_21_Right_21
*914 PHY_EDGE_ROW_22_Left_67
*915 PHY_EDGE_ROW_22_Right_22
*916 PHY_EDGE_ROW_23_Left_68
*917 PHY_EDGE_ROW_23_Right_23
*918 PHY_EDGE_ROW_24_Left_69
*919 PHY_EDGE_ROW_24_Right_24
*920 PHY_EDGE_ROW_25_Left_70
*921 PHY_EDGE_ROW_25_Right_25
*922 PHY_EDGE_ROW_26_Left_71
*923 PHY_EDGE_ROW_26_Right_26
*924 PHY_EDGE_ROW_27_Left_72
*925 PHY_EDGE_ROW_27_Right_27
*926 PHY_EDGE_ROW_28_Left_73
*927 PHY_EDGE_ROW_28_Right_28
*928 PHY_EDGE_ROW_29_Left_74
*929 PHY_EDGE_ROW_29_Right_29
*930 PHY_EDGE_ROW_2_Left_47
*931 PHY_EDGE_ROW_2_Right_2
*932 PHY_EDGE_ROW_30_Left_75
*933 PHY_EDGE_ROW_30_Right_30
*934 PHY_EDGE_ROW_31_Left_76
*935 PHY_EDGE_ROW_31_Right_31
*936 PHY_EDGE_ROW_32_Left_77
*937 PHY_EDGE_ROW_32_Right_32
*938 PHY_EDGE_ROW_33_Left_78
*939 PHY_EDGE_ROW_33_Right_33
*940 PHY_EDGE_ROW_34_Left_79
*941 PHY_EDGE_ROW_34_Right_34
*942 PHY_EDGE_ROW_35_Left_80
*943 PHY_EDGE_ROW_35_Right_35
*944 PHY_EDGE_ROW_36_Left_81
*945 PHY_EDGE_ROW_36_Right_36
*946 PHY_EDGE_ROW_37_Left_82
*947 PHY_EDGE_ROW_37_Right_37
*948 PHY_EDGE_ROW_38_Left_83
*949 PHY_EDGE_ROW_38_Right_38
*950 PHY_EDGE_ROW_39_Left_84
*951 PHY_EDGE_ROW_39_Right_39
*952 PHY_EDGE_ROW_3_Left_48
*953 PHY_EDGE_ROW_3_Right_3
*954 PHY_EDGE_ROW_40_Left_85
*955 PHY_EDGE_ROW_40_Right_40
*956 PHY_EDGE_ROW_41_Left_86
*957 PHY_EDGE_ROW_41_Right_41
*958 PHY_EDGE_ROW_42_Left_87
*959 PHY_EDGE_ROW_42_Right_42
*960 PHY_EDGE_ROW_43_Left_88
*961 PHY_EDGE_ROW_43_Right_43
*962 PHY_EDGE_ROW_44_Left_89
*963 PHY_EDGE_ROW_44_Right_44
*964 PHY_EDGE_ROW_4_Left_49
*965 PHY_EDGE_ROW_4_Right_4
*966 PHY_EDGE_ROW_5_Left_50
*967 PHY_EDGE_ROW_5_Right_5
*968 PHY_EDGE_ROW_6_Left_51
*969 PHY_EDGE_ROW_6_Right_6
*970 PHY_EDGE_ROW_7_Left_52
*971 PHY_EDGE_ROW_7_Right_7
*972 PHY_EDGE_ROW_8_Left_53
*973 PHY_EDGE_ROW_8_Right_8
*974 PHY_EDGE_ROW_9_Left_54
*975 PHY_EDGE_ROW_9_Right_9
*976 TAP_TAPCELL_ROW_0_90
*977 TAP_TAPCELL_ROW_0_91
*978 TAP_TAPCELL_ROW_0_92
*979 TAP_TAPCELL_ROW_0_93
*980 TAP_TAPCELL_ROW_0_94
*981 TAP_TAPCELL_ROW_0_95
*982 TAP_TAPCELL_ROW_0_96
*983 TAP_TAPCELL_ROW_0_97
*984 TAP_TAPCELL_ROW_0_98
*985 TAP_TAPCELL_ROW_0_99
*986 TAP_TAPCELL_ROW_10_140
*987 TAP_TAPCELL_ROW_10_141
*988 TAP_TAPCELL_ROW_10_142
*989 TAP_TAPCELL_ROW_10_143
*990 TAP_TAPCELL_ROW_10_144
*991 TAP_TAPCELL_ROW_11_145
*992 TAP_TAPCELL_ROW_11_146
*993 TAP_TAPCELL_ROW_11_147
*994 TAP_TAPCELL_ROW_11_148
*995 TAP_TAPCELL_ROW_12_149
*996 TAP_TAPCELL_ROW_12_150
*997 TAP_TAPCELL_ROW_12_151
*998 TAP_TAPCELL_ROW_12_152
*999 TAP_TAPCELL_ROW_12_153
*1000 TAP_TAPCELL_ROW_13_154
*1001 TAP_TAPCELL_ROW_13_155
*1002 TAP_TAPCELL_ROW_13_156
*1003 TAP_TAPCELL_ROW_13_157
*1004 TAP_TAPCELL_ROW_14_158
*1005 TAP_TAPCELL_ROW_14_159
*1006 TAP_TAPCELL_ROW_14_160
*1007 TAP_TAPCELL_ROW_14_161
*1008 TAP_TAPCELL_ROW_14_162
*1009 TAP_TAPCELL_ROW_15_163
*1010 TAP_TAPCELL_ROW_15_164
*1011 TAP_TAPCELL_ROW_15_165
*1012 TAP_TAPCELL_ROW_15_166
*1013 TAP_TAPCELL_ROW_16_167
*1014 TAP_TAPCELL_ROW_16_168
*1015 TAP_TAPCELL_ROW_16_169
*1016 TAP_TAPCELL_ROW_16_170
*1017 TAP_TAPCELL_ROW_16_171
*1018 TAP_TAPCELL_ROW_17_172
*1019 TAP_TAPCELL_ROW_17_173
*1020 TAP_TAPCELL_ROW_17_174
*1021 TAP_TAPCELL_ROW_17_175
*1022 TAP_TAPCELL_ROW_18_176
*1023 TAP_TAPCELL_ROW_18_177
*1024 TAP_TAPCELL_ROW_18_178
*1025 TAP_TAPCELL_ROW_18_179
*1026 TAP_TAPCELL_ROW_18_180
*1027 TAP_TAPCELL_ROW_19_181
*1028 TAP_TAPCELL_ROW_19_182
*1029 TAP_TAPCELL_ROW_19_183
*1030 TAP_TAPCELL_ROW_19_184
*1031 TAP_TAPCELL_ROW_1_100
*1032 TAP_TAPCELL_ROW_1_101
*1033 TAP_TAPCELL_ROW_1_102
*1034 TAP_TAPCELL_ROW_1_103
*1035 TAP_TAPCELL_ROW_20_185
*1036 TAP_TAPCELL_ROW_20_186
*1037 TAP_TAPCELL_ROW_20_187
*1038 TAP_TAPCELL_ROW_20_188
*1039 TAP_TAPCELL_ROW_20_189
*1040 TAP_TAPCELL_ROW_21_190
*1041 TAP_TAPCELL_ROW_21_191
*1042 TAP_TAPCELL_ROW_21_192
*1043 TAP_TAPCELL_ROW_21_193
*1044 TAP_TAPCELL_ROW_22_194
*1045 TAP_TAPCELL_ROW_22_195
*1046 TAP_TAPCELL_ROW_22_196
*1047 TAP_TAPCELL_ROW_22_197
*1048 TAP_TAPCELL_ROW_22_198
*1049 TAP_TAPCELL_ROW_23_199
*1050 TAP_TAPCELL_ROW_23_200
*1051 TAP_TAPCELL_ROW_23_201
*1052 TAP_TAPCELL_ROW_23_202
*1053 TAP_TAPCELL_ROW_24_203
*1054 TAP_TAPCELL_ROW_24_204
*1055 TAP_TAPCELL_ROW_24_205
*1056 TAP_TAPCELL_ROW_24_206
*1057 TAP_TAPCELL_ROW_24_207
*1058 TAP_TAPCELL_ROW_25_208
*1059 TAP_TAPCELL_ROW_25_209
*1060 TAP_TAPCELL_ROW_25_210
*1061 TAP_TAPCELL_ROW_25_211
*1062 TAP_TAPCELL_ROW_26_212
*1063 TAP_TAPCELL_ROW_26_213
*1064 TAP_TAPCELL_ROW_26_214
*1065 TAP_TAPCELL_ROW_26_215
*1066 TAP_TAPCELL_ROW_26_216
*1067 TAP_TAPCELL_ROW_27_217
*1068 TAP_TAPCELL_ROW_27_218
*1069 TAP_TAPCELL_ROW_27_219
*1070 TAP_TAPCELL_ROW_27_220
*1071 TAP_TAPCELL_ROW_28_221
*1072 TAP_TAPCELL_ROW_28_222
*1073 TAP_TAPCELL_ROW_28_223
*1074 TAP_TAPCELL_ROW_28_224
*1075 TAP_TAPCELL_ROW_28_225
*1076 TAP_TAPCELL_ROW_29_226
*1077 TAP_TAPCELL_ROW_29_227
*1078 TAP_TAPCELL_ROW_29_228
*1079 TAP_TAPCELL_ROW_29_229
*1080 TAP_TAPCELL_ROW_2_104
*1081 TAP_TAPCELL_ROW_2_105
*1082 TAP_TAPCELL_ROW_2_106
*1083 TAP_TAPCELL_ROW_2_107
*1084 TAP_TAPCELL_ROW_2_108
*1085 TAP_TAPCELL_ROW_30_230
*1086 TAP_TAPCELL_ROW_30_231
*1087 TAP_TAPCELL_ROW_30_232
*1088 TAP_TAPCELL_ROW_30_233
*1089 TAP_TAPCELL_ROW_30_234
*1090 TAP_TAPCELL_ROW_31_235
*1091 TAP_TAPCELL_ROW_31_236
*1092 TAP_TAPCELL_ROW_31_237
*1093 TAP_TAPCELL_ROW_31_238
*1094 TAP_TAPCELL_ROW_32_239
*1095 TAP_TAPCELL_ROW_32_240
*1096 TAP_TAPCELL_ROW_32_241
*1097 TAP_TAPCELL_ROW_32_242
*1098 TAP_TAPCELL_ROW_32_243
*1099 TAP_TAPCELL_ROW_33_244
*1100 TAP_TAPCELL_ROW_33_245
*1101 TAP_TAPCELL_ROW_33_246
*1102 TAP_TAPCELL_ROW_33_247
*1103 TAP_TAPCELL_ROW_34_248
*1104 TAP_TAPCELL_ROW_34_249
*1105 TAP_TAPCELL_ROW_34_250
*1106 TAP_TAPCELL_ROW_34_251
*1107 TAP_TAPCELL_ROW_34_252
*1108 TAP_TAPCELL_ROW_35_253
*1109 TAP_TAPCELL_ROW_35_254
*1110 TAP_TAPCELL_ROW_35_255
*1111 TAP_TAPCELL_ROW_35_256
*1112 TAP_TAPCELL_ROW_36_257
*1113 TAP_TAPCELL_ROW_36_258
*1114 TAP_TAPCELL_ROW_36_259
*1115 TAP_TAPCELL_ROW_36_260
*1116 TAP_TAPCELL_ROW_36_261
*1117 TAP_TAPCELL_ROW_37_262
*1118 TAP_TAPCELL_ROW_37_263
*1119 TAP_TAPCELL_ROW_37_264
*1120 TAP_TAPCELL_ROW_37_265
*1121 TAP_TAPCELL_ROW_38_266
*1122 TAP_TAPCELL_ROW_38_267
*1123 TAP_TAPCELL_ROW_38_268
*1124 TAP_TAPCELL_ROW_38_269
*1125 TAP_TAPCELL_ROW_38_270
*1126 TAP_TAPCELL_ROW_39_271
*1127 TAP_TAPCELL_ROW_39_272
*1128 TAP_TAPCELL_ROW_39_273
*1129 TAP_TAPCELL_ROW_39_274
*1130 TAP_TAPCELL_ROW_3_109
*1131 TAP_TAPCELL_ROW_3_110
*1132 TAP_TAPCELL_ROW_3_111
*1133 TAP_TAPCELL_ROW_3_112
*1134 TAP_TAPCELL_ROW_40_275
*1135 TAP_TAPCELL_ROW_40_276
*1136 TAP_TAPCELL_ROW_40_277
*1137 TAP_TAPCELL_ROW_40_278
*1138 TAP_TAPCELL_ROW_40_279
*1139 TAP_TAPCELL_ROW_41_280
*1140 TAP_TAPCELL_ROW_41_281
*1141 TAP_TAPCELL_ROW_41_282
*1142 TAP_TAPCELL_ROW_41_283
*1143 TAP_TAPCELL_ROW_42_284
*1144 TAP_TAPCELL_ROW_42_285
*1145 TAP_TAPCELL_ROW_42_286
*1146 TAP_TAPCELL_ROW_42_287
*1147 TAP_TAPCELL_ROW_42_288
*1148 TAP_TAPCELL_ROW_43_289
*1149 TAP_TAPCELL_ROW_43_290
*1150 TAP_TAPCELL_ROW_43_291
*1151 TAP_TAPCELL_ROW_43_292
*1152 TAP_TAPCELL_ROW_44_293
*1153 TAP_TAPCELL_ROW_44_294
*1154 TAP_TAPCELL_ROW_44_295
*1155 TAP_TAPCELL_ROW_44_296
*1156 TAP_TAPCELL_ROW_44_297
*1157 TAP_TAPCELL_ROW_44_298
*1158 TAP_TAPCELL_ROW_44_299
*1159 TAP_TAPCELL_ROW_44_300
*1160 TAP_TAPCELL_ROW_44_301
*1161 TAP_TAPCELL_ROW_44_302
*1162 TAP_TAPCELL_ROW_4_113
*1163 TAP_TAPCELL_ROW_4_114
*1164 TAP_TAPCELL_ROW_4_115
*1165 TAP_TAPCELL_ROW_4_116
*1166 TAP_TAPCELL_ROW_4_117
*1167 TAP_TAPCELL_ROW_5_118
*1168 TAP_TAPCELL_ROW_5_119
*1169 TAP_TAPCELL_ROW_5_120
*1170 TAP_TAPCELL_ROW_5_121
*1171 TAP_TAPCELL_ROW_6_122
*1172 TAP_TAPCELL_ROW_6_123
*1173 TAP_TAPCELL_ROW_6_124
*1174 TAP_TAPCELL_ROW_6_125
*1175 TAP_TAPCELL_ROW_6_126
*1176 TAP_TAPCELL_ROW_7_127
*1177 TAP_TAPCELL_ROW_7_128
*1178 TAP_TAPCELL_ROW_7_129
*1179 TAP_TAPCELL_ROW_7_130
*1180 TAP_TAPCELL_ROW_8_131
*1181 TAP_TAPCELL_ROW_8_132
*1182 TAP_TAPCELL_ROW_8_133
*1183 TAP_TAPCELL_ROW_8_134
*1184 TAP_TAPCELL_ROW_8_135
*1185 TAP_TAPCELL_ROW_9_136
*1186 TAP_TAPCELL_ROW_9_137
*1187 TAP_TAPCELL_ROW_9_138
*1188 TAP_TAPCELL_ROW_9_139
*1189 _094_
*1190 _095_
*1191 _096_
*1192 _097_
*1193 _098_
*1194 _099_
*1195 _100_
*1196 _101_
*1197 _102_
*1198 _103_
*1199 _104_
*1200 _105_
*1201 _106_
*1202 _107_
*1203 _108_
*1204 _109_
*1205 _110_
*1206 _111_
*1207 _112_
*1208 _113_
*1209 _114_
*1210 _115_
*1211 _116_
*1212 _117_
*1213 _118_
*1214 _119_
*1215 _120_
*1216 _121_
*1217 _122_
*1218 _123_
*1219 _124_
*1220 _125_
*1221 _126_
*1222 _127_
*1223 _128_
*1224 _129_
*1225 _130_
*1226 _131_
*1227 _132_
*1228 _133_
*1229 _134_
*1230 _135_
*1231 _136_
*1232 _137_
*1233 _138_
*1234 _139_
*1235 _140_
*1236 _141_
*1237 _142_
*1238 _143_
*1239 _144_
*1240 _145_
*1241 _146_
*1242 _147_
*1243 _148_
*1244 _149_
*1245 _150_
*1246 _151_
*1247 _152_
*1248 _153_
*1249 _154_
*1250 _155_
*1251 _156_
*1252 _157_
*1253 _158_
*1254 _159_
*1255 _160_
*1256 _161_
*1257 _162_
*1258 _163_
*1259 _164_
*1260 _165_
*1261 _166_
*1262 _167_
*1263 _168_
*1264 _169_
*1265 _170_
*1266 _171_
*1267 _172_
*1268 _173_
*1269 _174_
*1270 _175_
*1271 _176_
*1272 _177_
*1273 _178_
*1274 _179_
*1275 _180_
*1276 _181_
*1277 _182_
*1278 _183_
*1279 _184_
*1280 _185_
*1281 _186_
*1282 _187_
*1283 _188_
*1284 _189_
*1285 _190_
*1286 _191_
*1287 _192_
*1288 _193_
*1289 _194_
*1290 _195_
*1291 _196_
*1292 _197_
*1293 _198_
*1294 _199_
*1295 _200_
*1296 _201_
*1297 _202_
*1298 _203_
*1299 _204_
*1300 _205_
*1301 _206_
*1302 _207_
*1303 _208_
*1304 _209_
*1305 _210_
*1306 _211_
*1307 _212_
*1308 _213_
*1309 _214_
*1310 _215_
*1311 _216_
*1312 _217_
*1313 clkbuf_0_clk
*1314 clkbuf_1_0__f_clk
*1315 clkbuf_1_1__f_clk
*1316 output1
*1317 output10
*1318 output11
*1319 output12
*1320 output13
*1321 output14
*1322 output15
*1323 output16
*1324 output17
*1325 output18
*1326 output19
*1327 output2
*1328 output20
*1329 output21
*1330 output22
*1331 output23
*1332 output24
*1333 output25
*1334 output26
*1335 output3
*1336 output4
*1337 output5
*1338 output6
*1339 output7
*1340 output8
*1341 output9

*PORTS
clk I
segm[0] O
segm[10] O
segm[11] O
segm[12] O
segm[13] O
segm[1] O
segm[2] O
segm[3] O
segm[4] O
segm[5] O
segm[6] O
segm[7] O
segm[8] O
segm[9] O
sel[0] O
sel[10] O
sel[11] O
sel[1] O
sel[2] O
sel[3] O
sel[4] O
sel[5] O
sel[6] O
sel[7] O
sel[8] O
sel[9] O

*D_NET *1 0.0149808
*CONN
*P clk I
*I *1313:I I *D gf180mcu_fd_sc_mcu7t5v0__clkbuf_16
*I *181:I I *D gf180mcu_fd_sc_mcu7t5v0__antenna
*CAP
1 clk 0.00419958
2 *1313:I 0.000153835
3 *181:I 0
4 *1:13 0.00435341
5 *1313:I *1249:A2 0.000111975
6 *1313:I *1314:I 3.73627e-05
7 *1313:I *93:12 0
8 *1313:I *96:36 8.55327e-05
9 *1313:I *104:10 0.000215472
10 *1313:I *105:10 5.01187e-05
11 *1:13 *1249:A2 0.000120613
12 *1:13 *1281:A1 0.000853331
13 *1:13 *1281:C 0.000341508
14 *1:13 *1332:I 0.00379492
15 *1:13 *1334:I 0.000386421
16 *1:13 *85:10 0
17 *1:13 *104:10 0.000276717
*RES
1 clk *1:13 42.782 
2 *1:13 *181:I 9 
3 *1:13 *1313:I 10.672 
*END

*D_NET *2 0.000469555
*CONN
*P segm[0] O
*I *1316:Z O *D gf180mcu_fd_sc_mcu7t5v0__buf_8
*CAP
1 segm[0] 0.000201325
2 *1316:Z 0.000201325
3 segm[0] sel[3] 6.69047e-05
*RES
1 *1316:Z segm[0] 10.71 
*END

*D_NET *3 0.00193926
*CONN
*P segm[10] O
*I *1327:Z O *D gf180mcu_fd_sc_mcu7t5v0__buf_8
*CAP
1 segm[10] 0.000969632
2 *1327:Z 0.000969632
*RES
1 *1327:Z segm[10] 19.846 
*END

*D_NET *4 0.000926941
*CONN
*P segm[11] O
*I *1335:Z O *D gf180mcu_fd_sc_mcu7t5v0__buf_8
*CAP
1 segm[11] 0.00046347
2 *1335:Z 0.00046347
*RES
1 *1335:Z segm[11] 12.002 
*END

*D_NET *5 0.00175174
*CONN
*P segm[12] O
*I *1336:Z O *D gf180mcu_fd_sc_mcu7t5v0__buf_8
*CAP
1 segm[12] 0.000857192
2 *1336:Z 0.000857192
3 segm[12] *1336:I 3.73535e-05
*RES
1 *1336:Z segm[12] 19.238 
*END

*D_NET *6 0.00217635
*CONN
*P segm[13] O
*I *1337:Z O *D gf180mcu_fd_sc_mcu7t5v0__buf_8
*CAP
1 segm[13] 0.00102584
2 *1337:Z 0.00102584
3 segm[13] segm[6] 0.000124673
*RES
1 *1337:Z segm[13] 20.53 
*END

*D_NET *7 0.00104568
*CONN
*P segm[1] O
*I *1338:Z O *D gf180mcu_fd_sc_mcu7t5v0__buf_8
*CAP
1 segm[1] 0.000416952
2 *1338:Z 0.000416952
3 segm[1] sel[1] 0.00021178
*RES
1 *1338:Z segm[1] 12.002 
*END

*D_NET *8 0.000714099
*CONN
*P segm[2] O
*I *1339:Z O *D gf180mcu_fd_sc_mcu7t5v0__buf_8
*CAP
1 segm[2] 0.000299657
2 *1339:Z 0.000299657
3 segm[2] segm[5] 5.73926e-05
4 segm[2] sel[5] 5.73926e-05
*RES
1 *1339:Z segm[2] 11.09 