*SPEF "ieee 1481-1999"
*DESIGN "ita13"
*DATE "11:11:11 Fri 11 11, 1111"
*VENDOR "OpenRCX"
*PROGRAM "Parallel Extraction"
*VERSION "1.0"
*DESIGN_FLOW "NAME_SCOPE LOCAL" "PIN_CAP NONE"
*DIVIDER /
*DELIMITER :
*BUS_DELIMITER []
*T_UNIT 1 NS
*C_UNIT 1 PF
*R_UNIT 1 OHM
*L_UNIT 1 HENRY

*NAME_MAP
*1 clk
*2 net26
*3 segm[10]
*4 segm[11]
*5 segm[12]
*6 segm[13]
*7 segm[1]
*8 segm[2]
*9 segm[3]
*10 segm[4]
*11 segm[5]
*12 segm[6]
*13 segm[7]
*14 segm[8]
*15 segm[9]
*16 sel[0]
*17 sel[10]
*18 sel[11]
*19 sel[1]
*20 sel[2]
*21 sel[3]
*22 sel[4]
*23 sel[5]
*24 sel[6]
*25 sel[7]
*26 sel[8]
*27 sel[9]
*30 _000_
*31 _001_
*32 _002_
*33 _003_
*34 _004_
*35 _005_
*36 _006_
*37 _007_
*38 _008_
*39 _009_
*40 _010_
*41 _011_
*42 _012_
*43 _013_
*44 _014_
*45 _015_
*46 _016_
*47 _017_
*48 _018_
*49 _019_
*50 _020_
*51 _021_
*52 _022_
*53 _023_
*54 _024_
*55 _025_
*56 _026_
*57 _027_
*58 _028_
*59 _029_
*60 _030_
*61 _031_
*62 _032_
*63 _033_
*64 _034_
*65 _035_
*66 _036_
*67 _037_
*68 _038_
*69 _039_
*70 _040_
*71 _041_
*72 _042_
*73 _043_
*74 _044_
*75 _045_
*76 _046_
*77 _047_
*78 _048_
*79 _049_
*80 _050_
*81 _051_
*82 _052_
*83 _053_
*84 _054_
*85 _055_
*86 _056_
*87 _057_
*88 _058_
*89 _059_
*90 _060_
*91 _061_
*92 _062_
*93 _063_
*94 _064_
*95 _065_
*96 _066_
*97 _067_
*98 _068_
*99 _069_
*100 _070_
*101 _071_
*102 _072_
*103 _073_
*104 _074_
*105 _075_
*106 _076_
*107 _077_
*108 _078_
*109 _079_
*110 _080_
*111 _081_
*112 _082_
*113 _083_
*114 _084_
*115 _085_
*116 _086_
*117 _087_
*118 _088_
*119 _089_
*120 _090_
*121 _091_
*122 _092_
*123 _093_
*124 _094_
*125 _095_
*126 _096_
*127 _097_
*128 _098_
*129 _099_
*130 _100_
*131 _101_
*132 _102_
*133 _103_
*134 _104_
*135 _105_
*136 _106_
*137 _107_
*138 _108_
*139 _109_
*140 _110_
*141 _111_
*142 clknet_0_clk
*143 clknet_1_0__leaf_clk
*144 clknet_1_1__leaf_clk
*145 dut13\.count\[0\]
*146 dut13\.count\[1\]
*147 dut13\.count\[2\]
*148 dut13\.count\[3\]
*149 net1
*150 net10
*151 net11
*152 net12
*153 net13
*154 net14
*155 net15
*156 net16
*157 net17
*158 net18
*159 net19
*160 net2
*161 net20
*162 net21
*163 net22
*164 net23
*165 net24
*166 net25
*167 net3
*168 net4
*169 net5
*170 net6
*171 net7
*172 net8
*173 net9
*174 ANTENNA__224__CLK
*175 ANTENNA__225__CLK
*176 ANTENNA__226__CLK
*177 ANTENNA__227__CLK
*178 ANTENNA__228__CLK
*179 ANTENNA__229__CLK
*180 ANTENNA__230__CLK
*181 ANTENNA__231__CLK
*182 ANTENNA__232__CLK
*183 ANTENNA__233__CLK
*184 ANTENNA__234__CLK
*185 ANTENNA__235__CLK
*186 ANTENNA__236__CLK
*187 ANTENNA__237__CLK
*188 ANTENNA__238__CLK
*189 ANTENNA__239__CLK
*190 ANTENNA__240__CLK
*191 ANTENNA__241__CLK
*192 ANTENNA__242__CLK
*193 ANTENNA__243__CLK
*194 ANTENNA__244__CLK
*195 ANTENNA__245__CLK
*196 ANTENNA__246__CLK
*197 ANTENNA__247__CLK
*198 ANTENNA_clkbuf_0_clk_I
*199 FILLER_0_0_104
*200 FILLER_0_0_138
*201 FILLER_0_0_165
*202 FILLER_0_0_169
*203 FILLER_0_0_172
*204 FILLER_0_0_2
*205 FILLER_0_0_206
*206 FILLER_0_0_210
*207 FILLER_0_0_237
*208 FILLER_0_0_240
*209 FILLER_0_0_274
*210 FILLER_0_0_308
*211 FILLER_0_0_342
*212 FILLER_0_0_346
*213 FILLER_0_0_348
*214 FILLER_0_0_36
*215 FILLER_0_0_70
*216 FILLER_0_10_101
*217 FILLER_0_10_107
*218 FILLER_0_10_171
*219 FILLER_0_10_177
*220 FILLER_0_10_2
*221 FILLER_0_10_241
*222 FILLER_0_10_247
*223 FILLER_0_10_311
*224 FILLER_0_10_317
*225 FILLER_0_10_34
*226 FILLER_0_10_37
*227 FILLER_0_11_136
*228 FILLER_0_11_142
*229 FILLER_0_11_2
*230 FILLER_0_11_206
*231 FILLER_0_11_212
*232 FILLER_0_11_276
*233 FILLER_0_11_282
*234 FILLER_0_11_346
*235 FILLER_0_11_348
*236 FILLER_0_11_66
*237 FILLER_0_11_72
*238 FILLER_0_12_101
*239 FILLER_0_12_107
*240 FILLER_0_12_171
*241 FILLER_0_12_177
*242 FILLER_0_12_2
*243 FILLER_0_12_241
*244 FILLER_0_12_247
*245 FILLER_0_12_311
*246 FILLER_0_12_317
*247 FILLER_0_12_34
*248 FILLER_0_12_37
*249 FILLER_0_13_136
*250 FILLER_0_13_142
*251 FILLER_0_13_146
*252 FILLER_0_13_184
*253 FILLER_0_13_2
*254 FILLER_0_13_200
*255 FILLER_0_13_208
*256 FILLER_0_13_212
*257 FILLER_0_13_276
*258 FILLER_0_13_282
*259 FILLER_0_13_346
*260 FILLER_0_13_348
*261 FILLER_0_13_66
*262 FILLER_0_13_72
*263 FILLER_0_14_101
*264 FILLER_0_14_107
*265 FILLER_0_14_123
*266 FILLER_0_14_131
*267 FILLER_0_14_135
*268 FILLER_0_14_139
*269 FILLER_0_14_141
*270 FILLER_0_14_171
*271 FILLER_0_14_177
*272 FILLER_0_14_185
*273 FILLER_0_14_2
*274 FILLER_0_14_218
*275 FILLER_0_14_222
*276 FILLER_0_14_238
*277 FILLER_0_14_242
*278 FILLER_0_14_244
*279 FILLER_0_14_247
*280 FILLER_0_14_311
*281 FILLER_0_14_317
*282 FILLER_0_14_34
*283 FILLER_0_14_37
*284 FILLER_0_15_139
*285 FILLER_0_15_142
*286 FILLER_0_15_146
*287 FILLER_0_15_160
*288 FILLER_0_15_168
*289 FILLER_0_15_172
*290 FILLER_0_15_174
*291 FILLER_0_15_189
*292 FILLER_0_15_2
*293 FILLER_0_15_205
*294 FILLER_0_15_209
*295 FILLER_0_15_251
*296 FILLER_0_15_255
*297 FILLER_0_15_271
*298 FILLER_0_15_279
*299 FILLER_0_15_282
*300 FILLER_0_15_346
*301 FILLER_0_15_348
*302 FILLER_0_15_66
*303 FILLER_0_15_72
*304 FILLER_0_16_101
*305 FILLER_0_16_136
*306 FILLER_0_16_140
*307 FILLER_0_16_156
*308 FILLER_0_16_164
*309 FILLER_0_16_173
*310 FILLER_0_16_181
*311 FILLER_0_16_2
*312 FILLER_0_16_207
*313 FILLER_0_16_215
*314 FILLER_0_16_247
*315 FILLER_0_16_251
*316 FILLER_0_16_317
*317 FILLER_0_16_321
*318 FILLER_0_16_34
*319 FILLER_0_16_37
*320 FILLER_0_17_104
*321 FILLER_0_17_112
*322 FILLER_0_17_116
*323 FILLER_0_17_118
*324 FILLER_0_17_139
*325 FILLER_0_17_151
*326 FILLER_0_17_159
*327 FILLER_0_17_169
*328 FILLER_0_17_177
*329 FILLER_0_17_209
*330 FILLER_0_17_212
*331 FILLER_0_17_233
*332 FILLER_0_17_240
*333 FILLER_0_17_272
*334 FILLER_0_17_28
*335 FILLER_0_17_282
*336 FILLER_0_17_314
*337 FILLER_0_17_322
*338 FILLER_0_17_60
*339 FILLER_0_17_68
*340 FILLER_0_17_72
*341 FILLER_0_18_104
*342 FILLER_0_18_111
*343 FILLER_0_18_115
*344 FILLER_0_18_123
*345 FILLER_0_18_131
*346 FILLER_0_18_141
*347 FILLER_0_18_149
*348 FILLER_0_18_208
*349 FILLER_0_18_224
*350 FILLER_0_18_228
*351 FILLER_0_18_242
*352 FILLER_0_18_244
*353 FILLER_0_18_247
*354 FILLER_0_18_28
*355 FILLER_0_18_311
*356 FILLER_0_18_317
*357 FILLER_0_18_32
*358 FILLER_0_18_321
*359 FILLER_0_18_34
*360 FILLER_0_18_37
*361 FILLER_0_18_69
*362 FILLER_0_18_73
*363 FILLER_0_19_104
*364 FILLER_0_19_112
*365 FILLER_0_19_121
*366 FILLER_0_19_133
*367 FILLER_0_19_137
*368 FILLER_0_19_139
*369 FILLER_0_19_142
*370 FILLER_0_19_158
*371 FILLER_0_19_2
*372 FILLER_0_19_206
*373 FILLER_0_19_212
*374 FILLER_0_19_216
*375 FILLER_0_19_227
*376 FILLER_0_19_229
*377 FILLER_0_19_261
*378 FILLER_0_19_277
*379 FILLER_0_19_279
*380 FILLER_0_19_282
*381 FILLER_0_19_314
*382 FILLER_0_19_322
*383 FILLER_0_19_66
*384 FILLER_0_19_72
*385 FILLER_0_1_136
*386 FILLER_0_1_168
*387 FILLER_0_1_2
*388 FILLER_0_1_200
*389 FILLER_0_1_208
*390 FILLER_0_1_212
*391 FILLER_0_1_276
*392 FILLER_0_1_282
*393 FILLER_0_1_346
*394 FILLER_0_1_348
*395 FILLER_0_1_66
*396 FILLER_0_1_72
*397 FILLER_0_20_107
*398 FILLER_0_20_111
*399 FILLER_0_20_113
*400 FILLER_0_20_123
*401 FILLER_0_20_131
*402 FILLER_0_20_135
*403 FILLER_0_20_168
*404 FILLER_0_20_177
*405 FILLER_0_20_179
*406 FILLER_0_20_2
*407 FILLER_0_20_210
*408 FILLER_0_20_217
*409 FILLER_0_20_219
*410 FILLER_0_20_238
*411 FILLER_0_20_242
*412 FILLER_0_20_244
*413 FILLER_0_20_252
*414 FILLER_0_20_284
*415 FILLER_0_20_300
*416 FILLER_0_20_308
*417 FILLER_0_20_312
*418 FILLER_0_20_314
*419 FILLER_0_20_317
*420 FILLER_0_20_34
*421 FILLER_0_20_37
*422 FILLER_0_20_69
*423 FILLER_0_20_73
*424 FILLER_0_20_75
*425 FILLER_0_21_104
*426 FILLER_0_21_108
*427 FILLER_0_21_132
*428 FILLER_0_21_155
*429 FILLER_0_21_159
*430 FILLER_0_21_175
*431 FILLER_0_21_220
*432 FILLER_0_21_230
*433 FILLER_0_21_232
*434 FILLER_0_21_262
*435 FILLER_0_21_278
*436 FILLER_0_21_28
*437 FILLER_0_21_282
*438 FILLER_0_21_314
*439 FILLER_0_21_322
*440 FILLER_0_21_60
*441 FILLER_0_21_68
*442 FILLER_0_21_72
*443 FILLER_0_22_107
*444 FILLER_0_22_111
*445 FILLER_0_22_177
*446 FILLER_0_22_243
*447 FILLER_0_22_247
*448 FILLER_0_22_28
*449 FILLER_0_22_311
*450 FILLER_0_22_317
*451 FILLER_0_22_32
*452 FILLER_0_22_34
*453 FILLER_0_22_37
*454 FILLER_0_22_69
*455 FILLER_0_22_73
*456 FILLER_0_22_75
*457 FILLER_0_23_104
*458 FILLER_0_23_112
*459 FILLER_0_23_116
*460 FILLER_0_23_118
*461 FILLER_0_23_135
*462 FILLER_0_23_139
*463 FILLER_0_23_142
*464 FILLER_0_23_146
*465 FILLER_0_23_156
*466 FILLER_0_23_2
*467 FILLER_0_23_217
*468 FILLER_0_23_230
*469 FILLER_0_23_234
*470 FILLER_0_23_241
*471 FILLER_0_23_273
*472 FILLER_0_23_277
*473 FILLER_0_23_279
*474 FILLER_0_23_282
*475 FILLER_0_23_346
*476 FILLER_0_23_348
*477 FILLER_0_23_66
*478 FILLER_0_23_72
*479 FILLER_0_24_101
*480 FILLER_0_24_107
*481 FILLER_0_24_111
*482 FILLER_0_24_115
*483 FILLER_0_24_117
*484 FILLER_0_24_144
*485 FILLER_0_24_151
*486 FILLER_0_24_159
*487 FILLER_0_24_161
*488 FILLER_0_24_191
*489 FILLER_0_24_199
*490 FILLER_0_24_2
*491 FILLER_0_24_214
*492 FILLER_0_24_252
*493 FILLER_0_24_256
*494 FILLER_0_24_288
*495 FILLER_0_24_304
*496 FILLER_0_24_312
*497 FILLER_0_24_314
*498 FILLER_0_24_317
*499 FILLER_0_24_321
*500 FILLER_0_24_34
*501 FILLER_0_24_37
*502 FILLER_0_25_113
*503 FILLER_0_25_115
*504 FILLER_0_25_142
*505 FILLER_0_25_158
*506 FILLER_0_25_162
*507 FILLER_0_25_186
*508 FILLER_0_25_2
*509 FILLER_0_25_202
*510 FILLER_0_25_212
*511 FILLER_0_25_220
*512 FILLER_0_25_253
*513 FILLER_0_25_257
*514 FILLER_0_25_273
*515 FILLER_0_25_277
*516 FILLER_0_25_279
*517 FILLER_0_25_282
*518 FILLER_0_25_314
*519 FILLER_0_25_322
*520 FILLER_0_25_66
*521 FILLER_0_25_72
*522 FILLER_0_25_80
*523 FILLER_0_26_101
*524 FILLER_0_26_107
*525 FILLER_0_26_115
*526 FILLER_0_26_119
*527 FILLER_0_26_149
*528 FILLER_0_26_165
*529 FILLER_0_26_2
*530 FILLER_0_26_206
*531 FILLER_0_26_210
*532 FILLER_0_26_218
*533 FILLER_0_26_222
*534 FILLER_0_26_224
*535 FILLER_0_26_234
*536 FILLER_0_26_242
*537 FILLER_0_26_244
*538 FILLER_0_26_247
*539 FILLER_0_26_311
*540 FILLER_0_26_317
*541 FILLER_0_26_34
*542 FILLER_0_26_37
*543 FILLER_0_27_123
*544 FILLER_0_27_127
*545 FILLER_0_27_133
*546 FILLER_0_27_137
*547 FILLER_0_27_139
*548 FILLER_0_27_142
*549 FILLER_0_27_174
*550 FILLER_0_27_178
*551 FILLER_0_27_192
*552 FILLER_0_27_2
*553 FILLER_0_27_208
*554 FILLER_0_27_212
*555 FILLER_0_27_276
*556 FILLER_0_27_282
*557 FILLER_0_27_346
*558 FILLER_0_27_348
*559 FILLER_0_27_66
*560 FILLER_0_27_72
*561 FILLER_0_27_88
*562 FILLER_0_27_92
*563 FILLER_0_28_101
*564 FILLER_0_28_107
*565 FILLER_0_28_123
*566 FILLER_0_28_131
*567 FILLER_0_28_135
*568 FILLER_0_28_137
*569 FILLER_0_28_143
*570 FILLER_0_28_177
*571 FILLER_0_28_2
*572 FILLER_0_28_209
*573 FILLER_0_28_215
*574 FILLER_0_28_247
*575 FILLER_0_28_251
*576 FILLER_0_28_317
*577 FILLER_0_28_34
*578 FILLER_0_28_37
*579 FILLER_0_29_104
*580 FILLER_0_29_120
*581 FILLER_0_29_139
*582 FILLER_0_29_147
*583 FILLER_0_29_158
*584 FILLER_0_29_171
*585 FILLER_0_29_175
*586 FILLER_0_29_186
*587 FILLER_0_29_2
*588 FILLER_0_29_200
*589 FILLER_0_29_208
*590 FILLER_0_29_241
*591 FILLER_0_29_245
*592 FILLER_0_29_277
*593 FILLER_0_29_279
*594 FILLER_0_29_282
*595 FILLER_0_29_314
*596 FILLER_0_29_322
*597 FILLER_0_29_66
*598 FILLER_0_29_72
*599 FILLER_0_2_101
*600 FILLER_0_2_107
*601 FILLER_0_2_171
*602 FILLER_0_2_177
*603 FILLER_0_2_2
*604 FILLER_0_2_241
*605 FILLER_0_2_247
*606 FILLER_0_2_311
*607 FILLER_0_2_317
*608 FILLER_0_2_34
*609 FILLER_0_2_37
*610 FILLER_0_30_101
*611 FILLER_0_30_136
*612 FILLER_0_30_173
*613 FILLER_0_30_177
*614 FILLER_0_30_2
*615 FILLER_0_30_216
*616 FILLER_0_30_218
*617 FILLER_0_30_234
*618 FILLER_0_30_242
*619 FILLER_0_30_244
*620 FILLER_0_30_247
*621 FILLER_0_30_311
*622 FILLER_0_30_317
*623 FILLER_0_30_321
*624 FILLER_0_30_34
*625 FILLER_0_30_37
*626 FILLER_0_31_104
*627 FILLER_0_31_108
*628 FILLER_0_31_110
*629 FILLER_0_31_142
*630 FILLER_0_31_146
*631 FILLER_0_31_183
*632 FILLER_0_31_199
*633 FILLER_0_31_2
*634 FILLER_0_31_207
*635 FILLER_0_31_209
*636 FILLER_0_31_212
*637 FILLER_0_31_216
*638 FILLER_0_31_282
*639 FILLER_0_31_346
*640 FILLER_0_31_348
*641 FILLER_0_31_66
*642 FILLER_0_31_72
*643 FILLER_0_32_101
*644 FILLER_0_32_107
*645 FILLER_0_32_171
*646 FILLER_0_32_189
*647 FILLER_0_32_2
*648 FILLER_0_32_221
*649 FILLER_0_32_237
*650 FILLER_0_32_247
*651 FILLER_0_32_311
*652 FILLER_0_32_317
*653 FILLER_0_32_34
*654 FILLER_0_32_37
*655 FILLER_0_33_136
*656 FILLER_0_33_142
*657 FILLER_0_33_2
*658 FILLER_0_33_206
*659 FILLER_0_33_212
*660 FILLER_0_33_276
*661 FILLER_0_33_282
*662 FILLER_0_33_346
*663 FILLER_0_33_348
*664 FILLER_0_33_66
*665 FILLER_0_33_72
*666 FILLER_0_34_101
*667 FILLER_0_34_107
*668 FILLER_0_34_171
*669 FILLER_0_34_177
*670 FILLER_0_34_2
*671 FILLER_0_34_241
*672 FILLER_0_34_247
*673 FILLER_0_34_311
*674 FILLER_0_34_317
*675 FILLER_0_34_34
*676 FILLER_0_34_37
*677 FILLER_0_35_136
*678 FILLER_0_35_142
*679 FILLER_0_35_2
*680 FILLER_0_35_206
*681 FILLER_0_35_212
*682 FILLER_0_35_276
*683 FILLER_0_35_282
*684 FILLER_0_35_346
*685 FILLER_0_35_348
*686 FILLER_0_35_66
*687 FILLER_0_35_72
*688 FILLER_0_36_101
*689 FILLER_0_36_107
*690 FILLER_0_36_171
*691 FILLER_0_36_177
*692 FILLER_0_36_2
*693 FILLER_0_36_241
*694 FILLER_0_36_247
*695 FILLER_0_36_311
*696 FILLER_0_36_317
*697 FILLER_0_36_34
*698 FILLER_0_36_37
*699 FILLER_0_37_136
*700 FILLER_0_37_142
*701 FILLER_0_37_2
*702 FILLER_0_37_206
*703 FILLER_0_37_212
*704 FILLER_0_37_276
*705 FILLER_0_37_282
*706 FILLER_0_37_346
*707 FILLER_0_37_348
*708 FILLER_0_37_66
*709 FILLER_0_37_72
*710 FILLER_0_38_101
*711 FILLER_0_38_107
*712 FILLER_0_38_171
*713 FILLER_0_38_177
*714 FILLER_0_38_2
*715 FILLER_0_38_241
*716 FILLER_0_38_247
*717 FILLER_0_38_311
*718 FILLER_0_38_317
*719 FILLER_0_38_34
*720 FILLER_0_38_37
*721 FILLER_0_39_136
*722 FILLER_0_39_142
*723 FILLER_0_39_2
*724 FILLER_0_39_206
*725 FILLER_0_39_212
*726 FILLER_0_39_276
*727 FILLER_0_39_282
*728 FILLER_0_39_346
*729 FILLER_0_39_348
*730 FILLER_0_39_66
*731 FILLER_0_39_72
*732 FILLER_0_3_136
*733 FILLER_0_3_142
*734 FILLER_0_3_2
*735 FILLER_0_3_206
*736 FILLER_0_3_212
*737 FILLER_0_3_276
*738 FILLER_0_3_282
*739 FILLER_0_3_346
*740 FILLER_0_3_348
*741 FILLER_0_3_66
*742 FILLER_0_3_72
*743 FILLER_0_40_101
*744 FILLER_0_40_107
*745 FILLER_0_40_171
*746 FILLER_0_40_177
*747 FILLER_0_40_2
*748 FILLER_0_40_241
*749 FILLER_0_40_247
*750 FILLER_0_40_311
*751 FILLER_0_40_317
*752 FILLER_0_40_333
*753 FILLER_0_40_34
*754 FILLER_0_40_341
*755 FILLER_0_40_37
*756 FILLER_0_41_136
*757 FILLER_0_41_142
*758 FILLER_0_41_2
*759 FILLER_0_41_206
*760 FILLER_0_41_212
*761 FILLER_0_41_276
*762 FILLER_0_41_282
*763 FILLER_0_41_346
*764 FILLER_0_41_348
*765 FILLER_0_41_66
*766 FILLER_0_41_72
*767 FILLER_0_42_101
*768 FILLER_0_42_107
*769 FILLER_0_42_123
*770 FILLER_0_42_131
*771 FILLER_0_42_159
*772 FILLER_0_42_2
*773 FILLER_0_42_203
*774 FILLER_0_42_237
*775 FILLER_0_42_247
*776 FILLER_0_42_311
*777 FILLER_0_42_317
*778 FILLER_0_42_34
*779 FILLER_0_42_37
*780 FILLER_0_43_136
*781 FILLER_0_43_142
*782 FILLER_0_43_150
*783 FILLER_0_43_154
*784 FILLER_0_43_2
*785 FILLER_0_43_207
*786 FILLER_0_43_209
*787 FILLER_0_43_238
*788 FILLER_0_43_270
*789 FILLER_0_43_278
*790 FILLER_0_43_282
*791 FILLER_0_43_346
*792 FILLER_0_43_348
*793 FILLER_0_43_66
*794 FILLER_0_43_72
*795 FILLER_0_44_104
*796 FILLER_0_44_138
*797 FILLER_0_44_142
*798 FILLER_0_44_172
*799 FILLER_0_44_176
*800 FILLER_0_44_2
*801 FILLER_0_44_232
*802 FILLER_0_44_236
*803 FILLER_0_44_240
*804 FILLER_0_44_274
*805 FILLER_0_44_308
*806 FILLER_0_44_342
*807 FILLER_0_44_346
*808 FILLER_0_44_348
*809 FILLER_0_44_36
*810 FILLER_0_44_70
*811 FILLER_0_4_101
*812 FILLER_0_4_107
*813 FILLER_0_4_171
*814 FILLER_0_4_177
*815 FILLER_0_4_2
*816 FILLER_0_4_241
*817 FILLER_0_4_247
*818 FILLER_0_4_311
*819 FILLER_0_4_317
*820 FILLER_0_4_34
*821 FILLER_0_4_37
*822 FILLER_0_5_136
*823 FILLER_0_5_142
*824 FILLER_0_5_2
*825 FILLER_0_5_206
*826 FILLER_0_5_212
*827 FILLER_0_5_276
*828 FILLER_0_5_282
*829 FILLER_0_5_346
*830 FILLER_0_5_348
*831 FILLER_0_5_66
*832 FILLER_0_5_72
*833 FILLER_0_6_101
*834 FILLER_0_6_107
*835 FILLER_0_6_171
*836 FILLER_0_6_177
*837 FILLER_0_6_2
*838 FILLER_0_6_241
*839 FILLER_0_6_247
*840 FILLER_0_6_311
*841 FILLER_0_6_317
*842 FILLER_0_6_34
*843 FILLER_0_6_37
*844 FILLER_0_7_136
*845 FILLER_0_7_142
*846 FILLER_0_7_2
*847 FILLER_0_7_206
*848 FILLER_0_7_212
*849 FILLER_0_7_276
*850 FILLER_0_7_282
*851 FILLER_0_7_346
*852 FILLER_0_7_348
*853 FILLER_0_7_66
*854 FILLER_0_7_72
*855 FILLER_0_8_101
*856 FILLER_0_8_107
*857 FILLER_0_8_171
*858 FILLER_0_8_177
*859 FILLER_0_8_2
*860 FILLER_0_8_241
*861 FILLER_0_8_247
*862 FILLER_0_8_311
*863 FILLER_0_8_317
*864 FILLER_0_8_34
*865 FILLER_0_8_37
*866 FILLER_0_9_136
*867 FILLER_0_9_142
*868 FILLER_0_9_2
*869 FILLER_0_9_206
*870 FILLER_0_9_212
*871 FILLER_0_9_276
*872 FILLER_0_9_282
*873 FILLER_0_9_346
*874 FILLER_0_9_348
*875 FILLER_0_9_66
*876 FILLER_0_9_72
*877 PHY_EDGE_ROW_0_Left_45
*878 PHY_EDGE_ROW_0_Right_0
*879 PHY_EDGE_ROW_10_Left_55
*880 PHY_EDGE_ROW_10_Right_10
*881 PHY_EDGE_ROW_11_Left_56
*882 PHY_EDGE_ROW_11_Right_11
*883 PHY_EDGE_ROW_12_Left_57
*884 PHY_EDGE_ROW_12_Right_12
*885 PHY_EDGE_ROW_13_Left_58
*886 PHY_EDGE_ROW_13_Right_13
*887 PHY_EDGE_ROW_14_Left_59
*888 PHY_EDGE_ROW_14_Right_14
*889 PHY_EDGE_ROW_15_Left_60
*890 PHY_EDGE_ROW_15_Right_15
*891 PHY_EDGE_ROW_16_Left_61
*892 PHY_EDGE_ROW_16_Right_16
*893 PHY_EDGE_ROW_17_Left_62
*894 PHY_EDGE_ROW_17_Right_17
*895 PHY_EDGE_ROW_18_Left_63
*896 PHY_EDGE_ROW_18_Right_18
*897 PHY_EDGE_ROW_19_Left_64
*898 PHY_EDGE_ROW_19_Right_19
*899 PHY_EDGE_ROW_1_Left_46
*900 PHY_EDGE_ROW_1_Right_1
*901 PHY_EDGE_ROW_20_Left_65
*902 PHY_EDGE_ROW_20_Right_20
*903 PHY_EDGE_ROW_21_Left_66
*904 PHY_EDGE_ROW_21_Right_21
*905 PHY_EDGE_ROW_22_Left_67
*906 PHY_EDGE_ROW_22_Right_22
*907 PHY_EDGE_ROW_23_Left_68
*908 PHY_EDGE_ROW_23_Right_23
*909 PHY_EDGE_ROW_24_Left_69
*910 PHY_EDGE_ROW_24_Right_24
*911 PHY_EDGE_ROW_25_Left_70
*912 PHY_EDGE_ROW_25_Right_25
*913 PHY_EDGE_ROW_26_Left_71
*914 PHY_EDGE_ROW_26_Right_26
*915 PHY_EDGE_ROW_27_Left_72
*916 PHY_EDGE_ROW_27_Right_27
*917 PHY_EDGE_ROW_28_Left_73
*918 PHY_EDGE_ROW_28_Right_28
*919 PHY_EDGE_ROW_29_Left_74
*920 PHY_EDGE_ROW_29_Right_29
*921 PHY_EDGE_ROW_2_Left_47
*922 PHY_EDGE_ROW_2_Right_2
*923 PHY_EDGE_ROW_30_Left_75
*924 PHY_EDGE_ROW_30_Right_30
*925 PHY_EDGE_ROW_31_Left_76
*926 PHY_EDGE_ROW_31_Right_31
*927 PHY_EDGE_ROW_32_Left_77
*928 PHY_EDGE_ROW_32_Right_32
*929 PHY_EDGE_ROW_33_Left_78
*930 PHY_EDGE_ROW_33_Right_33
*931 PHY_EDGE_ROW_34_Left_79
*932 PHY_EDGE_ROW_34_Right_34
*933 PHY_EDGE_ROW_35_Left_80
*934 PHY_EDGE_ROW_35_Right_35
*935 PHY_EDGE_ROW_36_Left_81
*936 PHY_EDGE_ROW_36_Right_36
*937 PHY_EDGE_ROW_37_Left_82
*938 PHY_EDGE_ROW_37_Right_37
*939 PHY_EDGE_ROW_38_Left_83
*940 PHY_EDGE_ROW_38_Right_38
*941 PHY_EDGE_ROW_39_Left_84
*942 PHY_EDGE_ROW_39_Right_39
*943 PHY_EDGE_ROW_3_Left_48
*944 PHY_EDGE_ROW_3_Right_3
*945 PHY_EDGE_ROW_40_Left_85
*946 PHY_EDGE_ROW_40_Right_40
*947 PHY_EDGE_ROW_41_Left_86
*948 PHY_EDGE_ROW_41_Right_41
*949 PHY_EDGE_ROW_42_Left_87
*950 PHY_EDGE_ROW_42_Right_42
*951 PHY_EDGE_ROW_43_Left_88
*952 PHY_EDGE_ROW_43_Right_43
*953 PHY_EDGE_ROW_44_Left_89
*954 PHY_EDGE_ROW_44_Right_44
*955 PHY_EDGE_ROW_4_Left_49
*956 PHY_EDGE_ROW_4_Right_4
*957 PHY_EDGE_ROW_5_Left_50
*958 PHY_EDGE_ROW_5_Right_5
*959 PHY_EDGE_ROW_6_Left_51
*960 PHY_EDGE_ROW_6_Right_6
*961 PHY_EDGE_ROW_7_Left_52
*962 PHY_EDGE_ROW_7_Right_7
*963 PHY_EDGE_ROW_8_Left_53
*964 PHY_EDGE_ROW_8_Right_8
*965 PHY_EDGE_ROW_9_Left_54
*966 PHY_EDGE_ROW_9_Right_9
*967 TAP_TAPCELL_ROW_0_90
*968 TAP_TAPCELL_ROW_0_91
*969 TAP_TAPCELL_ROW_0_92
*970 TAP_TAPCELL_ROW_0_93
*971 TAP_TAPCELL_ROW_0_94
*972 TAP_TAPCELL_ROW_0_95
*973 TAP_TAPCELL_ROW_0_96
*974 TAP_TAPCELL_ROW_0_97
*975 TAP_TAPCELL_ROW_0_98
*976 TAP_TAPCELL_ROW_0_99
*977 TAP_TAPCELL_ROW_10_140
*978 TAP_TAPCELL_ROW_10_141
*979 TAP_TAPCELL_ROW_10_142
*980 TAP_TAPCELL_ROW_10_143
*981 TAP_TAPCELL_ROW_10_144
*982 TAP_TAPCELL_ROW_11_145
*983 TAP_TAPCELL_ROW_11_146
*984 TAP_TAPCELL_ROW_11_147
*985 TAP_TAPCELL_ROW_11_148
*986 TAP_TAPCELL_ROW_12_149
*987 TAP_TAPCELL_ROW_12_150
*988 TAP_TAPCELL_ROW_12_151
*989 TAP_TAPCELL_ROW_12_152
*990 TAP_TAPCELL_ROW_12_153
*991 TAP_TAPCELL_ROW_13_154
*992 TAP_TAPCELL_ROW_13_155
*993 TAP_TAPCELL_ROW_13_156
*994 TAP_TAPCELL_ROW_13_157
*995 TAP_TAPCELL_ROW_14_158
*996 TAP_TAPCELL_ROW_14_159
*997 TAP_TAPCELL_ROW_14_160
*998 TAP_TAPCELL_ROW_14_161
*999 TAP_TAPCELL_ROW_14_162
*1000 TAP_TAPCELL_ROW_15_163
*1001 TAP_TAPCELL_ROW_15_164
*1002 TAP_TAPCELL_ROW_15_165
*1003 TAP_TAPCELL_ROW_15_166
*1004 TAP_TAPCELL_ROW_16_167
*1005 TAP_TAPCELL_ROW_16_168
*1006 TAP_TAPCELL_ROW_16_169
*1007 TAP_TAPCELL_ROW_16_170
*1008 TAP_TAPCELL_ROW_16_171
*1009 TAP_TAPCELL_ROW_17_172
*1010 TAP_TAPCELL_ROW_17_173
*1011 TAP_TAPCELL_ROW_17_174
*1012 TAP_TAPCELL_ROW_17_175
*1013 TAP_TAPCELL_ROW_18_176
*1014 TAP_TAPCELL_ROW_18_177
*1015 TAP_TAPCELL_ROW_18_178
*1016 TAP_TAPCELL_ROW_18_179
*1017 TAP_TAPCELL_ROW_18_180
*1018 TAP_TAPCELL_ROW_19_181
*1019 TAP_TAPCELL_ROW_19_182
*1020 TAP_TAPCELL_ROW_19_183
*1021 TAP_TAPCELL_ROW_19_184
*1022 TAP_TAPCELL_ROW_1_100
*1023 TAP_TAPCELL_ROW_1_101
*1024 TAP_TAPCELL_ROW_1_102
*1025 TAP_TAPCELL_ROW_1_103
*1026 TAP_TAPCELL_ROW_20_185
*1027 TAP_TAPCELL_ROW_20_186
*1028 TAP_TAPCELL_ROW_20_187
*1029 TAP_TAPCELL_ROW_20_188
*1030 TAP_TAPCELL_ROW_20_189
*1031 TAP_TAPCELL_ROW_21_190
*1032 TAP_TAPCELL_ROW_21_191
*1033 TAP_TAPCELL_ROW_21_192
*1034 TAP_TAPCELL_ROW_21_193
*1035 TAP_TAPCELL_ROW_22_194
*1036 TAP_TAPCELL_ROW_22_195
*1037 TAP_TAPCELL_ROW_22_196
*1038 TAP_TAPCELL_ROW_22_197
*1039 TAP_TAPCELL_ROW_22_198
*1040 TAP_TAPCELL_ROW_23_199
*1041 TAP_TAPCELL_ROW_23_200
*1042 TAP_TAPCELL_ROW_23_201
*1043 TAP_TAPCELL_ROW_23_202
*1044 TAP_TAPCELL_ROW_24_203
*1045 TAP_TAPCELL_ROW_24_204
*1046 TAP_TAPCELL_ROW_24_205
*1047 TAP_TAPCELL_ROW_24_206
*1048 TAP_TAPCELL_ROW_24_207
*1049 TAP_TAPCELL_ROW_25_208
*1050 TAP_TAPCELL_ROW_25_209
*1051 TAP_TAPCELL_ROW_25_210
*1052 TAP_TAPCELL_ROW_25_211
*1053 TAP_TAPCELL_ROW_26_212
*1054 TAP_TAPCELL_ROW_26_213
*1055 TAP_TAPCELL_ROW_26_214
*1056 TAP_TAPCELL_ROW_26_215
*1057 TAP_TAPCELL_ROW_26_216
*1058 TAP_TAPCELL_ROW_27_217
*1059 TAP_TAPCELL_ROW_27_218
*1060 TAP_TAPCELL_ROW_27_219
*1061 TAP_TAPCELL_ROW_27_220
*1062 TAP_TAPCELL_ROW_28_221
*1063 TAP_TAPCELL_ROW_28_222
*1064 TAP_TAPCELL_ROW_28_223
*1065 TAP_TAPCELL_ROW_28_224
*1066 TAP_TAPCELL_ROW_28_225
*1067 TAP_TAPCELL_ROW_29_226
*1068 TAP_TAPCELL_ROW_29_227
*1069 TAP_TAPCELL_ROW_29_228
*1070 TAP_TAPCELL_ROW_29_229
*1071 TAP_TAPCELL_ROW_2_104
*1072 TAP_TAPCELL_ROW_2_105
*1073 TAP_TAPCELL_ROW_2_106
*1074 TAP_TAPCELL_ROW_2_107
*1075 TAP_TAPCELL_ROW_2_108
*1076 TAP_TAPCELL_ROW_30_230
*1077 TAP_TAPCELL_ROW_30_231
*1078 TAP_TAPCELL_ROW_30_232
*1079 TAP_TAPCELL_ROW_30_233
*1080 TAP_TAPCELL_ROW_30_234
*1081 TAP_TAPCELL_ROW_31_235
*1082 TAP_TAPCELL_ROW_31_236
*1083 TAP_TAPCELL_ROW_31_237
*1084 TAP_TAPCELL_ROW_31_238
*1085 TAP_TAPCELL_ROW_32_239
*1086 TAP_TAPCELL_ROW_32_240
*1087 TAP_TAPCELL_ROW_32_241
*1088 TAP_TAPCELL_ROW_32_242
*1089 TAP_TAPCELL_ROW_32_243
*1090 TAP_TAPCELL_ROW_33_244
*1091 TAP_TAPCELL_ROW_33_245
*1092 TAP_TAPCELL_ROW_33_246
*1093 TAP_TAPCELL_ROW_33_247
*1094 TAP_TAPCELL_ROW_34_248
*1095 TAP_TAPCELL_ROW_34_249
*1096 TAP_TAPCELL_ROW_34_250
*1097 TAP_TAPCELL_ROW_34_251
*1098 TAP_TAPCELL_ROW_34_252
*1099 TAP_TAPCELL_ROW_35_253
*1100 TAP_TAPCELL_ROW_35_254
*1101 TAP_TAPCELL_ROW_35_255
*1102 TAP_TAPCELL_ROW_35_256
*1103 TAP_TAPCELL_ROW_36_257
*1104 TAP_TAPCELL_ROW_36_258
*1105 TAP_TAPCELL_ROW_36_259
*1106 TAP_TAPCELL_ROW_36_260
*1107 TAP_TAPCELL_ROW_36_261
*1108 TAP_TAPCELL_ROW_37_262
*1109 TAP_TAPCELL_ROW_37_263
*1110 TAP_TAPCELL_ROW_37_264
*1111 TAP_TAPCELL_ROW_37_265
*1112 TAP_TAPCELL_ROW_38_266
*1113 TAP_TAPCELL_ROW_38_267
*1114 TAP_TAPCELL_ROW_38_268
*1115 TAP_TAPCELL_ROW_38_269
*1116 TAP_TAPCELL_ROW_38_270
*1117 TAP_TAPCELL_ROW_39_271
*1118 TAP_TAPCELL_ROW_39_272
*1119 TAP_TAPCELL_ROW_39_273
*1120 TAP_TAPCELL_ROW_39_274
*1121 TAP_TAPCELL_ROW_3_109
*1122 TAP_TAPCELL_ROW_3_110
*1123 TAP_TAPCELL_ROW_3_111
*1124 TAP_TAPCELL_ROW_3_112
*1125 TAP_TAPCELL_ROW_40_275
*1126 TAP_TAPCELL_ROW_40_276
*1127 TAP_TAPCELL_ROW_40_277
*1128 TAP_TAPCELL_ROW_40_278
*1129 TAP_TAPCELL_ROW_40_279
*1130 TAP_TAPCELL_ROW_41_280
*1131 TAP_TAPCELL_ROW_41_281
*1132 TAP_TAPCELL_ROW_41_282
*1133 TAP_TAPCELL_ROW_41_283
*1134 TAP_TAPCELL_ROW_42_284
*1135 TAP_TAPCELL_ROW_42_285
*1136 TAP_TAPCELL_ROW_42_286
*1137 TAP_TAPCELL_ROW_42_287
*1138 TAP_TAPCELL_ROW_42_288
*1139 TAP_TAPCELL_ROW_43_289
*1140 TAP_TAPCELL_ROW_43_290
*1141 TAP_TAPCELL_ROW_43_291
*1142 TAP_TAPCELL_ROW_43_292
*1143 TAP_TAPCELL_ROW_44_293
*1144 TAP_TAPCELL_ROW_44_294
*1145 TAP_TAPCELL_ROW_44_295
*1146 TAP_TAPCELL_ROW_44_296
*1147 TAP_TAPCELL_ROW_44_297
*1148 TAP_TAPCELL_ROW_44_298
*1149 TAP_TAPCELL_ROW_44_299
*1150 TAP_TAPCELL_ROW_44_300
*1151 TAP_TAPCELL_ROW_44_301
*1152 TAP_TAPCELL_ROW_44_302
*1153 TAP_TAPCELL_ROW_4_113
*1154 TAP_TAPCELL_ROW_4_114
*1155 TAP_TAPCELL_ROW_4_115
*1156 TAP_TAPCELL_ROW_4_116
*1157 TAP_TAPCELL_ROW_4_117
*1158 TAP_TAPCELL_ROW_5_118
*1159 TAP_TAPCELL_ROW_5_119
*1160 TAP_TAPCELL_ROW_5_120
*1161 TAP_TAPCELL_ROW_5_121
*1162 TAP_TAPCELL_ROW_6_122
*1163 TAP_TAPCELL_ROW_6_123
*1164 TAP_TAPCELL_ROW_6_124
*1165 TAP_TAPCELL_ROW_6_125
*1166 TAP_TAPCELL_ROW_6_126
*1167 TAP_TAPCELL_ROW_7_127
*1168 TAP_TAPCELL_ROW_7_128
*1169 TAP_TAPCELL_ROW_7_129
*1170 TAP_TAPCELL_ROW_7_130
*1171 TAP_TAPCELL_ROW_8_131
*1172 TAP_TAPCELL_ROW_8_132
*1173 TAP_TAPCELL_ROW_8_133
*1174 TAP_TAPCELL_ROW_8_134
*1175 TAP_TAPCELL_ROW_8_135
*1176 TAP_TAPCELL_ROW_9_136
*1177 TAP_TAPCELL_ROW_9_137
*1178 TAP_TAPCELL_ROW_9_138
*1179 TAP_TAPCELL_ROW_9_139
*1180 _112_
*1181 _113_
*1182 _114_
*1183 _115_
*1184 _116_
*1185 _117_
*1186 _118_
*1187 _119_
*1188 _120_
*1189 _121_
*1190 _122_
*1191 _123_
*1192 _124_
*1193 _125_
*1194 _126_
*1195 _127_
*1196 _128_
*1197 _129_
*1198 _130_
*1199 _131_
*1200 _132_
*1201 _133_
*1202 _134_
*1203 _135_
*1204 _136_
*1205 _137_
*1206 _138_
*1207 _139_
*1208 _140_
*1209 _141_
*1210 _142_
*1211 _143_
*1212 _144_
*1213 _145_
*1214 _146_
*1215 _147_
*1216 _148_
*1217 _149_
*1218 _150_
*1219 _151_
*1220 _152_
*1221 _153_
*1222 _154_
*1223 _155_
*1224 _156_
*1225 _157_
*1226 _158_
*1227 _159_
*1228 _160_
*1229 _161_
*1230 _162_
*1231 _163_
*1232 _164_
*1233 _165_
*1234 _166_
*1235 _167_
*1236 _168_
*1237 _169_
*1238 _170_
*1239 _171_
*1240 _172_
*1241 _173_
*1242 _174_
*1243 _175_
*1244 _176_
*1245 _177_
*1246 _178_
*1247 _179_
*1248 _180_
*1249 _181_
*1250 _182_
*1251 _183_
*1252 _184_
*1253 _185_
*1254 _186_
*1255 _187_
*1256 _188_
*1257 _189_
*1258 _190_
*1259 _191_
*1260 _192_
*1261 _193_
*1262 _194_
*1263 _195_
*1264 _196_
*1265 _197_
*1266 _198_
*1267 _199_
*1268 _200_
*1269 _201_
*1270 _202_
*1271 _203_
*1272 _204_
*1273 _205_
*1274 _206_
*1275 _207_
*1276 _208_
*1277 _209_
*1278 _210_
*1279 _211_
*1280 _212_
*1281 _213_
*1282 _214_
*1283 _215_
*1284 _216_
*1285 _217_
*1286 _218_
*1287 _219_
*1288 _220_
*1289 _221_
*1290 _222_
*1291 _223_
*1292 _224_
*1293 _225_
*1294 _226_
*1295 _227_
*1296 _228_
*1297 _229_
*1298 _230_
*1299 _231_
*1300 _232_
*1301 _233_
*1302 _234_
*1303 _235_
*1304 _236_
*1305 _237_
*1306 _238_
*1307 _239_
*1308 _240_
*1309 _241_
*1310 _242_
*1311 _243_
*1312 _244_
*1313 _245_
*1314 _246_
*1315 _247_
*1316 _249_
*1317 _250_
*1318 _251_
*1319 _252_
*1320 _253_
*1321 clkbuf_0_clk
*1322 clkbuf_1_0__f_clk
*1323 clkbuf_1_1__f_clk
*1324 ita13_26
*1325 output1
*1326 output10
*1327 output11
*1328 output12
*1329 output13
*1330 output14
*1331 output15
*1332 output16
*1333 output17
*1334 output18
*1335 output19
*1336 output2
*1337 output20
*1338 output21
*1339 output22
*1340 output23
*1341 output24
*1342 output25
*1343 output3
*1344 output4
*1345 output5
*1346 output6
*1347 output7
*1348 output8
*1349 output9

*PORTS
clk I
segm[0] O
segm[10] O
segm[11] O
segm[12] O
segm[13] O
segm[1] O
segm[2] O
segm[3] O
segm[4] O
segm[5] O
segm[6] O
segm[7] O
segm[8] O
segm[9] O
sel[0] O
sel[10] O
sel[11] O
sel[1] O
sel[2] O
sel[3] O
sel[4] O
sel[5] O
sel[6] O
sel[7] O
sel[8] O
sel[9] O

*D_NET *1 0.015822
*CONN
*P clk I
*I *1321:I I *D gf180mcu_fd_sc_mcu7t5v0__clkbuf_16
*I *198:I I *D gf180mcu_fd_sc_mcu7t5v0__antenna
*CAP
1 clk 0.00370083
2 *1321:I 0.000113715
3 *198:I 0
4 *1:15 0.00105407
5 *1:11 0.00464118
6 *1321:I *1229:I 8.56628e-05
7 *1321:I *136:10 3.17817e-05
8 *1:11 *1298:D 0.000888517
9 *1:11 *1298:CLK 0.000147902
10 *1:11 *143:164 2.47364e-05
11 *1:15 *1188:I 2.76472e-05
12 *1:15 *1200:B2 0.000198661
13 *1:15 *1222:A1 0.00125053
14 *1:15 *1230:A1 0.000332131
15 *1:15 *1250:A1 0
16 *1:15 *1261:B2 0.000193054
17 *1:15 *1298:D 0.00243161
18 *1:15 *116:25 0.000177589
19 *1:15 *130:14 0.000522341
*RES
1 clk *1:11 40.148 
2 *1:11 *1:15 18.54 
3 *1:15 *198:I 4.5 
4 *1:15 *1321:I 5.748 
*END

*D_NET *2 0.000732282
*CONN
*P segm[0] O
*I *1324:ZN O *D gf180mcu_fd_sc_mcu7t5v0__tiel
*CAP
1 segm[0] 0.000366141
2 *1324:ZN 0.000366141
*RES
1 *1324:ZN segm[0] 11.652 
*END

*D_NET *3 0.000508646
*CONN
*P segm[10] O
*I *1325:Z O *D gf180mcu_fd_sc_mcu7t5v0__buf_8
*CAP
1 segm[10] 0.000254323
2 *1325:Z 0.000254323
*RES
1 *1325:Z segm[10] 11.34 
*END

*D_NET *4 0.000530519
*CONN
*P segm[11] O
*I *1336:Z O *D gf180mcu_fd_sc_mcu7t5v0__buf_8
*CAP
1 segm[11] 0.000230762
2 *1336:Z 0.000230762
3 segm[11] segm[13] 6.8994e-05
*RES
1 *1336:Z segm[11] 11.34 
*END

*D_NET *5 0.00107077
*CONN
*P segm[12] O
*I *1343:Z O *D gf180mcu_fd_sc_mcu7t5v0__buf_8
*CAP
1 segm[12] 0.000500888
2 *1343:Z 0.000500888
3 segm[12] segm[7] 6.8994e-05
*RES
1 *1343:Z segm[12] 13.108 
*END

*D_NET *6 0.000698543
*CONN
*P segm[13] O
*I *1344:Z O *D gf180mcu_fd_sc_mcu7t5v0__buf_8
*CAP
1 segm[13] 0.000314775
2 *1344:Z 0.000314775
3 segm[11] segm[13] 6.8994e-05
*RES
1 *1344:Z segm[13] 11.86 
*END

*D_NET *7 0.00194786
*CONN
*P segm[1] O
*I *1345:Z O *D gf180mcu_fd_sc_mcu7t5v0__buf_8
*CAP
1 segm[1] 0.000967773
2 *1345:Z 0.000967773
3 segm[1] segm[4] 1.23172e-05
*RES
1 *1345:Z segm[1] 21.456 
*END

*D_NET *8 0.00153518
*CONN
*P segm[2] O
*I *1346:Z O *D gf180mcu_fd_sc_mcu7t5v0__buf_8
*CAP
1 segm[2] 0.000696116
2 *1346:Z 0.000696116
3 segm[2] sel[0] 0.000142953
*RES
1 *1346:Z segm[2] 10.688 
*END

*D_NET *9 0.0030009
*CONN
*P segm[3] O
*I *1347:Z O *D gf180mcu_fd_sc_mcu7t5v0__buf_8