*SPEF "ieee 1481-1999"
*DESIGN "ita17"
*DATE "11:11:11 Fri 11 11, 1111"
*VENDOR "OpenRCX"
*PROGRAM "Parallel Extraction"
*VERSION "1.0"
*DESIGN_FLOW "NAME_SCOPE LOCAL" "PIN_CAP NONE"
*DIVIDER /
*DELIMITER :
*BUS_DELIMITER []
*T_UNIT 1 NS
*C_UNIT 1 PF
*R_UNIT 1 OHM
*L_UNIT 1 HENRY

*NAME_MAP
*1 clk
*2 segm[0]
*3 segm[10]
*4 segm[11]
*5 segm[12]
*6 segm[13]
*7 segm[1]
*8 net25
*9 segm[3]
*10 segm[4]
*11 net26
*12 segm[6]
*13 segm[7]
*14 segm[8]
*15 segm[9]
*16 sel[0]
*17 sel[10]
*18 sel[11]
*19 sel[1]
*20 sel[2]
*21 sel[3]
*22 sel[4]
*23 sel[5]
*24 sel[6]
*25 sel[7]
*26 sel[8]
*27 sel[9]
*30 _000_
*31 _001_
*32 _002_
*33 _003_
*34 _004_
*35 _005_
*36 _006_
*37 _007_
*38 _008_
*39 _009_
*40 _010_
*41 _011_
*42 _012_
*43 _013_
*44 _014_
*45 _015_
*46 _016_
*47 _017_
*48 _018_
*49 _019_
*50 _020_
*51 _021_
*52 _022_
*53 _023_
*54 _024_
*55 _025_
*56 _026_
*57 _027_
*58 _028_
*59 _029_
*60 _030_
*61 _031_
*62 _032_
*63 _033_
*64 _034_
*65 _035_
*66 _036_
*67 _037_
*68 _038_
*69 _039_
*70 _040_
*71 _041_
*72 _042_
*73 _043_
*74 _044_
*75 _045_
*76 _046_
*77 _047_
*78 _048_
*79 _049_
*80 _050_
*81 _051_
*82 _052_
*83 _053_
*84 _054_
*85 _055_
*86 _056_
*87 _057_
*88 _058_
*89 _059_
*90 _060_
*91 _061_
*92 _062_
*93 _063_
*94 _064_
*95 _065_
*96 _066_
*97 _067_
*98 _068_
*99 _069_
*100 _070_
*101 _071_
*102 _072_
*103 _073_
*104 _074_
*105 _075_
*106 _076_
*107 _077_
*108 _078_
*109 _079_
*110 _080_
*111 _081_
*112 _082_
*113 _083_
*114 _084_
*115 _085_
*116 _086_
*117 _087_
*118 _088_
*119 _089_
*120 _090_
*121 _091_
*122 _092_
*123 _093_
*124 _094_
*125 _095_
*126 _096_
*127 _097_
*128 _098_
*129 _099_
*130 _100_
*131 _101_
*132 _102_
*133 _103_
*134 clknet_0_clk
*135 clknet_1_0__leaf_clk
*136 clknet_1_1__leaf_clk
*137 dut17\.count\[0\]
*138 dut17\.count\[1\]
*139 dut17\.count\[2\]
*140 dut17\.count\[3\]
*141 net1
*142 net10
*143 net11
*144 net12
*145 net13
*146 net14
*147 net15
*148 net16
*149 net17
*150 net18
*151 net19
*152 net2
*153 net20
*154 net21
*155 net22
*156 net23
*157 net24
*158 net3
*159 net4
*160 net5
*161 net6
*162 net7
*163 net8
*164 net9
*165 ANTENNA__208__CLK
*166 ANTENNA__209__CLK
*167 ANTENNA__210__CLK
*168 ANTENNA__211__CLK
*169 ANTENNA__212__CLK
*170 ANTENNA__213__CLK
*171 ANTENNA__214__CLK
*172 ANTENNA__215__CLK
*173 ANTENNA__216__CLK
*174 ANTENNA__217__CLK
*175 ANTENNA__218__CLK
*176 ANTENNA__219__CLK
*177 ANTENNA__220__CLK
*178 ANTENNA__221__CLK
*179 ANTENNA__222__CLK
*180 ANTENNA__223__CLK
*181 ANTENNA__224__CLK
*182 ANTENNA__225__CLK
*183 ANTENNA__226__CLK
*184 ANTENNA__227__CLK
*185 ANTENNA__228__CLK
*186 ANTENNA__229__CLK
*187 ANTENNA__230__CLK
*188 ANTENNA__231__CLK
*189 ANTENNA__232__CLK
*190 ANTENNA__233__CLK
*191 ANTENNA_clkbuf_0_clk_I
*192 FILLER_0_0_104
*193 FILLER_0_0_120
*194 FILLER_0_0_125
*195 FILLER_0_0_133
*196 FILLER_0_0_135
*197 FILLER_0_0_138
*198 FILLER_0_0_142
*199 FILLER_0_0_172
*200 FILLER_0_0_174
*201 FILLER_0_0_2
*202 FILLER_0_0_201
*203 FILLER_0_0_203
*204 FILLER_0_0_232
*205 FILLER_0_0_236
*206 FILLER_0_0_240
*207 FILLER_0_0_274
*208 FILLER_0_0_308
*209 FILLER_0_0_342
*210 FILLER_0_0_346
*211 FILLER_0_0_348
*212 FILLER_0_0_36
*213 FILLER_0_0_70
*214 FILLER_0_10_101
*215 FILLER_0_10_107
*216 FILLER_0_10_171
*217 FILLER_0_10_177
*218 FILLER_0_10_2
*219 FILLER_0_10_241
*220 FILLER_0_10_247
*221 FILLER_0_10_311
*222 FILLER_0_10_317
*223 FILLER_0_10_34
*224 FILLER_0_10_37
*225 FILLER_0_11_136
*226 FILLER_0_11_142
*227 FILLER_0_11_146
*228 FILLER_0_11_153
*229 FILLER_0_11_185
*230 FILLER_0_11_2
*231 FILLER_0_11_201
*232 FILLER_0_11_209
*233 FILLER_0_11_212
*234 FILLER_0_11_276
*235 FILLER_0_11_282
*236 FILLER_0_11_346
*237 FILLER_0_11_348
*238 FILLER_0_11_66
*239 FILLER_0_11_72
*240 FILLER_0_12_101
*241 FILLER_0_12_107
*242 FILLER_0_12_115
*243 FILLER_0_12_177
*244 FILLER_0_12_2
*245 FILLER_0_12_208
*246 FILLER_0_12_212
*247 FILLER_0_12_244
*248 FILLER_0_12_247
*249 FILLER_0_12_311
*250 FILLER_0_12_317
*251 FILLER_0_12_34
*252 FILLER_0_12_37
*253 FILLER_0_13_136
*254 FILLER_0_13_142
*255 FILLER_0_13_144
*256 FILLER_0_13_151
*257 FILLER_0_13_155
*258 FILLER_0_13_159
*259 FILLER_0_13_175
*260 FILLER_0_13_179
*261 FILLER_0_13_2
*262 FILLER_0_13_212
*263 FILLER_0_13_216
*264 FILLER_0_13_282
*265 FILLER_0_13_346
*266 FILLER_0_13_348
*267 FILLER_0_13_66
*268 FILLER_0_13_72
*269 FILLER_0_14_101
*270 FILLER_0_14_107
*271 FILLER_0_14_123
*272 FILLER_0_14_125
*273 FILLER_0_14_155
*274 FILLER_0_14_159
*275 FILLER_0_14_177
*276 FILLER_0_14_185
*277 FILLER_0_14_189
*278 FILLER_0_14_191
*279 FILLER_0_14_2
*280 FILLER_0_14_204
*281 FILLER_0_14_236
*282 FILLER_0_14_244
*283 FILLER_0_14_247
*284 FILLER_0_14_311
*285 FILLER_0_14_317
*286 FILLER_0_14_34
*287 FILLER_0_14_37
*288 FILLER_0_15_126
*289 FILLER_0_15_130
*290 FILLER_0_15_138
*291 FILLER_0_15_146
*292 FILLER_0_15_165
*293 FILLER_0_15_181
*294 FILLER_0_15_185
*295 FILLER_0_15_196
*296 FILLER_0_15_2
*297 FILLER_0_15_204
*298 FILLER_0_15_208
*299 FILLER_0_15_212
*300 FILLER_0_15_243
*301 FILLER_0_15_247
*302 FILLER_0_15_279
*303 FILLER_0_15_282
*304 FILLER_0_15_346
*305 FILLER_0_15_348
*306 FILLER_0_15_66
*307 FILLER_0_15_72
*308 FILLER_0_15_88
*309 FILLER_0_15_96
*310 FILLER_0_16_101
*311 FILLER_0_16_107
*312 FILLER_0_16_139
*313 FILLER_0_16_143
*314 FILLER_0_16_162
*315 FILLER_0_16_172
*316 FILLER_0_16_174
*317 FILLER_0_16_177
*318 FILLER_0_16_179
*319 FILLER_0_16_192
*320 FILLER_0_16_2
*321 FILLER_0_16_208
*322 FILLER_0_16_216
*323 FILLER_0_16_218
*324 FILLER_0_16_227
*325 FILLER_0_16_241
*326 FILLER_0_16_247
*327 FILLER_0_16_311
*328 FILLER_0_16_317
*329 FILLER_0_16_321
*330 FILLER_0_16_34
*331 FILLER_0_16_37
*332 FILLER_0_17_118
*333 FILLER_0_17_122
*334 FILLER_0_17_138
*335 FILLER_0_17_142
*336 FILLER_0_17_146
*337 FILLER_0_17_148
*338 FILLER_0_17_159
*339 FILLER_0_17_191
*340 FILLER_0_17_2
*341 FILLER_0_17_207
*342 FILLER_0_17_209
*343 FILLER_0_17_212
*344 FILLER_0_17_216
*345 FILLER_0_17_246
*346 FILLER_0_17_250
*347 FILLER_0_17_266
*348 FILLER_0_17_274
*349 FILLER_0_17_278
*350 FILLER_0_17_282
*351 FILLER_0_17_346
*352 FILLER_0_17_348
*353 FILLER_0_17_66
*354 FILLER_0_17_72
*355 FILLER_0_17_88
*356 FILLER_0_18_115
*357 FILLER_0_18_125
*358 FILLER_0_18_133
*359 FILLER_0_18_137
*360 FILLER_0_18_149
*361 FILLER_0_18_162
*362 FILLER_0_18_170
*363 FILLER_0_18_174
*364 FILLER_0_18_177
*365 FILLER_0_18_193
*366 FILLER_0_18_201
*367 FILLER_0_18_211
*368 FILLER_0_18_234
*369 FILLER_0_18_242
*370 FILLER_0_18_244
*371 FILLER_0_18_247
*372 FILLER_0_18_28
*373 FILLER_0_18_311
*374 FILLER_0_18_317
*375 FILLER_0_18_32
*376 FILLER_0_18_321
*377 FILLER_0_18_34
*378 FILLER_0_18_37
*379 FILLER_0_18_69
*380 FILLER_0_18_85
*381 FILLER_0_18_93
*382 FILLER_0_18_97
*383 FILLER_0_19_124
*384 FILLER_0_19_128
*385 FILLER_0_19_136
*386 FILLER_0_19_148
*387 FILLER_0_19_170
*388 FILLER_0_19_187
*389 FILLER_0_19_2
*390 FILLER_0_19_203
*391 FILLER_0_19_207
*392 FILLER_0_19_209
*393 FILLER_0_19_212
*394 FILLER_0_19_220
*395 FILLER_0_19_250
*396 FILLER_0_19_254
*397 FILLER_0_19_270
*398 FILLER_0_19_278
*399 FILLER_0_19_282
*400 FILLER_0_19_314
*401 FILLER_0_19_322
*402 FILLER_0_19_66
*403 FILLER_0_19_72
*404 FILLER_0_19_88
*405 FILLER_0_1_136
*406 FILLER_0_1_142
*407 FILLER_0_1_150
*408 FILLER_0_1_154
*409 FILLER_0_1_156
*410 FILLER_0_1_183
*411 FILLER_0_1_199
*412 FILLER_0_1_2
*413 FILLER_0_1_207
*414 FILLER_0_1_209
*415 FILLER_0_1_238
*416 FILLER_0_1_270
*417 FILLER_0_1_278
*418 FILLER_0_1_282
*419 FILLER_0_1_346
*420 FILLER_0_1_348
*421 FILLER_0_1_66
*422 FILLER_0_1_72
*423 FILLER_0_20_101
*424 FILLER_0_20_107
*425 FILLER_0_20_115
*426 FILLER_0_20_139
*427 FILLER_0_20_174
*428 FILLER_0_20_177
*429 FILLER_0_20_2
*430 FILLER_0_20_213
*431 FILLER_0_20_217
*432 FILLER_0_20_228
*433 FILLER_0_20_232
*434 FILLER_0_20_240
*435 FILLER_0_20_244
*436 FILLER_0_20_247
*437 FILLER_0_20_311
*438 FILLER_0_20_317
*439 FILLER_0_20_34
*440 FILLER_0_20_37
*441 FILLER_0_21_113
*442 FILLER_0_21_117
*443 FILLER_0_21_125
*444 FILLER_0_21_127
*445 FILLER_0_21_150
*446 FILLER_0_21_2
*447 FILLER_0_21_207
*448 FILLER_0_21_209
*449 FILLER_0_21_212
*450 FILLER_0_21_222
*451 FILLER_0_21_224
*452 FILLER_0_21_254
*453 FILLER_0_21_270
*454 FILLER_0_21_278
*455 FILLER_0_21_282
*456 FILLER_0_21_346
*457 FILLER_0_21_348
*458 FILLER_0_21_66
*459 FILLER_0_21_72
*460 FILLER_0_21_80
*461 FILLER_0_22_101
*462 FILLER_0_22_107
*463 FILLER_0_22_123
*464 FILLER_0_22_2
*465 FILLER_0_22_241
*466 FILLER_0_22_247
*467 FILLER_0_22_311
*468 FILLER_0_22_317
*469 FILLER_0_22_34
*470 FILLER_0_22_37
*471 FILLER_0_23_128
*472 FILLER_0_23_132
*473 FILLER_0_23_148
*474 FILLER_0_23_160
*475 FILLER_0_23_164
*476 FILLER_0_23_172
*477 FILLER_0_23_185
*478 FILLER_0_23_187
*479 FILLER_0_23_2
*480 FILLER_0_23_205
*481 FILLER_0_23_209
*482 FILLER_0_23_219
*483 FILLER_0_23_221
*484 FILLER_0_23_248
*485 FILLER_0_23_282
*486 FILLER_0_23_314
*487 FILLER_0_23_322
*488 FILLER_0_23_66
*489 FILLER_0_23_72
*490 FILLER_0_23_88
*491 FILLER_0_23_96
*492 FILLER_0_23_98
*493 FILLER_0_24_107
*494 FILLER_0_24_113
*495 FILLER_0_24_121
*496 FILLER_0_24_125
*497 FILLER_0_24_127
*498 FILLER_0_24_146
*499 FILLER_0_24_162
*500 FILLER_0_24_170
*501 FILLER_0_24_174
*502 FILLER_0_24_188
*503 FILLER_0_24_190
*504 FILLER_0_24_2
*505 FILLER_0_24_213
*506 FILLER_0_24_217
*507 FILLER_0_24_233
*508 FILLER_0_24_241
*509 FILLER_0_24_247
*510 FILLER_0_24_311
*511 FILLER_0_24_317
*512 FILLER_0_24_321
*513 FILLER_0_24_34
*514 FILLER_0_24_37
*515 FILLER_0_24_69
*516 FILLER_0_24_85
*517 FILLER_0_24_97
*518 FILLER_0_25_102
*519 FILLER_0_25_108
*520 FILLER_0_25_112
*521 FILLER_0_25_128
*522 FILLER_0_25_132
*523 FILLER_0_25_139
*524 FILLER_0_25_142
*525 FILLER_0_25_158
*526 FILLER_0_25_162
*527 FILLER_0_25_173
*528 FILLER_0_25_212
*529 FILLER_0_25_216
*530 FILLER_0_25_246
*531 FILLER_0_25_250
*532 FILLER_0_25_266
*533 FILLER_0_25_274
*534 FILLER_0_25_278
*535 FILLER_0_25_28
*536 FILLER_0_25_282
*537 FILLER_0_25_314
*538 FILLER_0_25_330
*539 FILLER_0_25_338
*540 FILLER_0_25_342
*541 FILLER_0_25_344
*542 FILLER_0_25_60
*543 FILLER_0_25_68
*544 FILLER_0_25_72
*545 FILLER_0_26_107
*546 FILLER_0_26_115
*547 FILLER_0_26_123
*548 FILLER_0_26_127
*549 FILLER_0_26_145
*550 FILLER_0_26_153
*551 FILLER_0_26_170
*552 FILLER_0_26_174
*553 FILLER_0_26_177
*554 FILLER_0_26_2
*555 FILLER_0_26_241
*556 FILLER_0_26_247
*557 FILLER_0_26_311
*558 FILLER_0_26_317
*559 FILLER_0_26_321
*560 FILLER_0_26_34
*561 FILLER_0_26_37
*562 FILLER_0_26_69
*563 FILLER_0_26_85
*564 FILLER_0_26_93
*565 FILLER_0_27_106
*566 FILLER_0_27_110
*567 FILLER_0_27_142
*568 FILLER_0_27_146
*569 FILLER_0_27_150
*570 FILLER_0_27_183
*571 FILLER_0_27_199
*572 FILLER_0_27_207
*573 FILLER_0_27_209
*574 FILLER_0_27_212
*575 FILLER_0_27_216
*576 FILLER_0_27_246
*577 FILLER_0_27_250
*578 FILLER_0_27_266
*579 FILLER_0_27_274
*580 FILLER_0_27_278
*581 FILLER_0_27_28
*582 FILLER_0_27_282
*583 FILLER_0_27_346
*584 FILLER_0_27_348
*585 FILLER_0_27_60
*586 FILLER_0_27_68
*587 FILLER_0_27_72
*588 FILLER_0_27_76
*589 FILLER_0_28_101
*590 FILLER_0_28_107
*591 FILLER_0_28_111
*592 FILLER_0_28_121
*593 FILLER_0_28_129
*594 FILLER_0_28_131
*595 FILLER_0_28_144
*596 FILLER_0_28_152
*597 FILLER_0_28_154
*598 FILLER_0_28_168
*599 FILLER_0_28_172
*600 FILLER_0_28_174
*601 FILLER_0_28_177
*602 FILLER_0_28_185
*603 FILLER_0_28_189
*604 FILLER_0_28_191
*605 FILLER_0_28_233
*606 FILLER_0_28_241
*607 FILLER_0_28_247
*608 FILLER_0_28_28
*609 FILLER_0_28_311
*610 FILLER_0_28_317
*611 FILLER_0_28_32
*612 FILLER_0_28_34
*613 FILLER_0_28_37
*614 FILLER_0_28_69
*615 FILLER_0_28_85
*616 FILLER_0_28_93
*617 FILLER_0_28_95
*618 FILLER_0_29_100
*619 FILLER_0_29_135
*620 FILLER_0_29_139
*621 FILLER_0_29_176
*622 FILLER_0_29_180
*623 FILLER_0_29_188
*624 FILLER_0_29_195
*625 FILLER_0_29_2
*626 FILLER_0_29_204
*627 FILLER_0_29_208
*628 FILLER_0_29_217
*629 FILLER_0_29_221
*630 FILLER_0_29_225
*631 FILLER_0_29_257
*632 FILLER_0_29_273
*633 FILLER_0_29_277
*634 FILLER_0_29_279
*635 FILLER_0_29_282
*636 FILLER_0_29_314
*637 FILLER_0_29_322
*638 FILLER_0_29_66
*639 FILLER_0_29_72
*640 FILLER_0_29_88
*641 FILLER_0_29_96
*642 FILLER_0_2_101
*643 FILLER_0_2_107
*644 FILLER_0_2_171
*645 FILLER_0_2_177
*646 FILLER_0_2_2
*647 FILLER_0_2_241
*648 FILLER_0_2_247
*649 FILLER_0_2_311
*650 FILLER_0_2_317
*651 FILLER_0_2_34
*652 FILLER_0_2_37
*653 FILLER_0_30_101
*654 FILLER_0_30_107
*655 FILLER_0_30_139
*656 FILLER_0_30_143
*657 FILLER_0_30_177
*658 FILLER_0_30_2
*659 FILLER_0_30_210
*660 FILLER_0_30_226
*661 FILLER_0_30_242
*662 FILLER_0_30_244
*663 FILLER_0_30_247
*664 FILLER_0_30_311
*665 FILLER_0_30_317
*666 FILLER_0_30_34
*667 FILLER_0_30_37
*668 FILLER_0_31_136
*669 FILLER_0_31_142
*670 FILLER_0_31_174
*671 FILLER_0_31_190
*672 FILLER_0_31_198
*673 FILLER_0_31_2
*674 FILLER_0_31_204
*675 FILLER_0_31_208
*676 FILLER_0_31_212
*677 FILLER_0_31_276
*678 FILLER_0_31_282
*679 FILLER_0_31_346
*680 FILLER_0_31_348
*681 FILLER_0_31_66
*682 FILLER_0_31_72
*683 FILLER_0_32_101
*684 FILLER_0_32_107
*685 FILLER_0_32_171
*686 FILLER_0_32_177
*687 FILLER_0_32_2
*688 FILLER_0_32_241
*689 FILLER_0_32_247
*690 FILLER_0_32_311
*691 FILLER_0_32_317
*692 FILLER_0_32_34
*693 FILLER_0_32_37
*694 FILLER_0_33_136
*695 FILLER_0_33_142
*696 FILLER_0_33_2
*697 FILLER_0_33_206
*698 FILLER_0_33_212
*699 FILLER_0_33_276
*700 FILLER_0_33_282
*701 FILLER_0_33_346
*702 FILLER_0_33_348
*703 FILLER_0_33_66
*704 FILLER_0_33_72
*705 FILLER_0_34_101
*706 FILLER_0_34_107
*707 FILLER_0_34_171
*708 FILLER_0_34_177
*709 FILLER_0_34_2
*710 FILLER_0_34_241
*711 FILLER_0_34_247
*712 FILLER_0_34_311
*713 FILLER_0_34_317
*714 FILLER_0_34_34
*715 FILLER_0_34_37
*716 FILLER_0_35_136
*717 FILLER_0_35_142
*718 FILLER_0_35_2
*719 FILLER_0_35_206
*720 FILLER_0_35_212
*721 FILLER_0_35_276
*722 FILLER_0_35_282
*723 FILLER_0_35_346
*724 FILLER_0_35_348
*725 FILLER_0_35_66
*726 FILLER_0_35_72
*727 FILLER_0_36_101
*728 FILLER_0_36_107
*729 FILLER_0_36_171
*730 FILLER_0_36_177
*731 FILLER_0_36_2
*732 FILLER_0_36_241
*733 FILLER_0_36_247
*734 FILLER_0_36_311
*735 FILLER_0_36_317
*736 FILLER_0_36_34
*737 FILLER_0_36_37
*738 FILLER_0_37_136
*739 FILLER_0_37_142
*740 FILLER_0_37_2
*741 FILLER_0_37_206
*742 FILLER_0_37_212
*743 FILLER_0_37_276
*744 FILLER_0_37_282
*745 FILLER_0_37_346
*746 FILLER_0_37_348
*747 FILLER_0_37_66
*748 FILLER_0_37_72
*749 FILLER_0_38_101
*750 FILLER_0_38_107
*751 FILLER_0_38_171
*752 FILLER_0_38_177
*753 FILLER_0_38_2
*754 FILLER_0_38_241
*755 FILLER_0_38_247
*756 FILLER_0_38_311
*757 FILLER_0_38_317
*758 FILLER_0_38_34
*759 FILLER_0_38_37
*760 FILLER_0_39_136
*761 FILLER_0_39_142
*762 FILLER_0_39_2
*763 FILLER_0_39_206
*764 FILLER_0_39_212
*765 FILLER_0_39_276
*766 FILLER_0_39_282
*767 FILLER_0_39_346
*768 FILLER_0_39_348
*769 FILLER_0_39_66
*770 FILLER_0_39_72
*771 FILLER_0_3_136
*772 FILLER_0_3_142
*773 FILLER_0_3_2
*774 FILLER_0_3_206
*775 FILLER_0_3_212
*776 FILLER_0_3_276
*777 FILLER_0_3_282
*778 FILLER_0_3_346
*779 FILLER_0_3_348
*780 FILLER_0_3_66
*781 FILLER_0_3_72
*782 FILLER_0_40_101
*783 FILLER_0_40_107
*784 FILLER_0_40_171
*785 FILLER_0_40_177
*786 FILLER_0_40_2
*787 FILLER_0_40_241
*788 FILLER_0_40_247
*789 FILLER_0_40_311
*790 FILLER_0_40_317
*791 FILLER_0_40_34
*792 FILLER_0_40_37
*793 FILLER_0_41_136
*794 FILLER_0_41_142
*795 FILLER_0_41_2
*796 FILLER_0_41_206
*797 FILLER_0_41_212
*798 FILLER_0_41_276
*799 FILLER_0_41_282
*800 FILLER_0_41_346
*801 FILLER_0_41_348
*802 FILLER_0_41_66
*803 FILLER_0_41_72
*804 FILLER_0_42_101
*805 FILLER_0_42_107
*806 FILLER_0_42_171
*807 FILLER_0_42_2
*808 FILLER_0_42_203
*809 FILLER_0_42_211
*810 FILLER_0_42_215
*811 FILLER_0_42_243
*812 FILLER_0_42_247
*813 FILLER_0_42_311
*814 FILLER_0_42_317
*815 FILLER_0_42_34
*816 FILLER_0_42_37
*817 FILLER_0_43_136
*818 FILLER_0_43_142
*819 FILLER_0_43_174
*820 FILLER_0_43_2
*821 FILLER_0_43_201
*822 FILLER_0_43_209
*823 FILLER_0_43_238
*824 FILLER_0_43_270
*825 FILLER_0_43_278
*826 FILLER_0_43_282
*827 FILLER_0_43_346
*828 FILLER_0_43_348
*829 FILLER_0_43_66
*830 FILLER_0_43_72
*831 FILLER_0_44_104
*832 FILLER_0_44_164
*833 FILLER_0_44_168
*834 FILLER_0_44_172
*835 FILLER_0_44_176
*836 FILLER_0_44_2
*837 FILLER_0_44_232
*838 FILLER_0_44_236
*839 FILLER_0_44_266
*840 FILLER_0_44_270
*841 FILLER_0_44_274
*842 FILLER_0_44_308
*843 FILLER_0_44_342
*844 FILLER_0_44_346
*845 FILLER_0_44_348
*846 FILLER_0_44_36
*847 FILLER_0_44_70
*848 FILLER_0_4_101
*849 FILLER_0_4_107
*850 FILLER_0_4_171
*851 FILLER_0_4_177
*852 FILLER_0_4_2
*853 FILLER_0_4_241
*854 FILLER_0_4_247
*855 FILLER_0_4_311
*856 FILLER_0_4_317
*857 FILLER_0_4_34
*858 FILLER_0_4_37
*859 FILLER_0_5_136
*860 FILLER_0_5_142
*861 FILLER_0_5_2
*862 FILLER_0_5_206
*863 FILLER_0_5_212
*864 FILLER_0_5_276
*865 FILLER_0_5_282
*866 FILLER_0_5_346
*867 FILLER_0_5_348
*868 FILLER_0_5_66
*869 FILLER_0_5_72
*870 FILLER_0_6_101
*871 FILLER_0_6_107
*872 FILLER_0_6_171
*873 FILLER_0_6_177
*874 FILLER_0_6_2
*875 FILLER_0_6_241
*876 FILLER_0_6_247
*877 FILLER_0_6_311
*878 FILLER_0_6_317
*879 FILLER_0_6_34
*880 FILLER_0_6_37
*881 FILLER_0_7_136
*882 FILLER_0_7_142
*883 FILLER_0_7_2
*884 FILLER_0_7_206
*885 FILLER_0_7_212
*886 FILLER_0_7_276
*887 FILLER_0_7_282
*888 FILLER_0_7_346
*889 FILLER_0_7_348
*890 FILLER_0_7_66
*891 FILLER_0_7_72
*892 FILLER_0_8_101
*893 FILLER_0_8_107
*894 FILLER_0_8_171
*895 FILLER_0_8_177
*896 FILLER_0_8_2
*897 FILLER_0_8_241
*898 FILLER_0_8_247
*899 FILLER_0_8_311
*900 FILLER_0_8_317
*901 FILLER_0_8_34
*902 FILLER_0_8_37
*903 FILLER_0_9_136
*904 FILLER_0_9_142
*905 FILLER_0_9_2
*906 FILLER_0_9_206
*907 FILLER_0_9_212
*908 FILLER_0_9_276
*909 FILLER_0_9_282
*910 FILLER_0_9_346
*911 FILLER_0_9_348
*912 FILLER_0_9_66
*913 FILLER_0_9_72
*914 PHY_EDGE_ROW_0_Left_45
*915 PHY_EDGE_ROW_0_Right_0
*916 PHY_EDGE_ROW_10_Left_55
*917 PHY_EDGE_ROW_10_Right_10
*918 PHY_EDGE_ROW_11_Left_56
*919 PHY_EDGE_ROW_11_Right_11
*920 PHY_EDGE_ROW_12_Left_57
*921 PHY_EDGE_ROW_12_Right_12
*922 PHY_EDGE_ROW_13_Left_58
*923 PHY_EDGE_ROW_13_Right_13
*924 PHY_EDGE_ROW_14_Left_59
*925 PHY_EDGE_ROW_14_Right_14
*926 PHY_EDGE_ROW_15_Left_60
*927 PHY_EDGE_ROW_15_Right_15
*928 PHY_EDGE_ROW_16_Left_61
*929 PHY_EDGE_ROW_16_Right_16
*930 PHY_EDGE_ROW_17_Left_62
*931 PHY_EDGE_ROW_17_Right_17
*932 PHY_EDGE_ROW_18_Left_63
*933 PHY_EDGE_ROW_18_Right_18
*934 PHY_EDGE_ROW_19_Left_64
*935 PHY_EDGE_ROW_19_Right_19
*936 PHY_EDGE_ROW_1_Left_46
*937 PHY_EDGE_ROW_1_Right_1
*938 PHY_EDGE_ROW_20_Left_65
*939 PHY_EDGE_ROW_20_Right_20
*940 PHY_EDGE_ROW_21_Left_66
*941 PHY_EDGE_ROW_21_Right_21
*942 PHY_EDGE_ROW_22_Left_67
*943 PHY_EDGE_ROW_22_Right_22
*944 PHY_EDGE_ROW_23_Left_68
*945 PHY_EDGE_ROW_23_Right_23
*946 PHY_EDGE_ROW_24_Left_69
*947 PHY_EDGE_ROW_24_Right_24
*948 PHY_EDGE_ROW_25_Left_70
*949 PHY_EDGE_ROW_25_Right_25
*950 PHY_EDGE_ROW_26_Left_71
*951 PHY_EDGE_ROW_26_Right_26
*952 PHY_EDGE_ROW_27_Left_72
*953 PHY_EDGE_ROW_27_Right_27
*954 PHY_EDGE_ROW_28_Left_73
*955 PHY_EDGE_ROW_28_Right_28
*956 PHY_EDGE_ROW_29_Left_74
*957 PHY_EDGE_ROW_29_Right_29
*958 PHY_EDGE_ROW_2_Left_47
*959 PHY_EDGE_ROW_2_Right_2
*960 PHY_EDGE_ROW_30_Left_75
*961 PHY_EDGE_ROW_30_Right_30
*962 PHY_EDGE_ROW_31_Left_76
*963 PHY_EDGE_ROW_31_Right_31
*964 PHY_EDGE_ROW_32_Left_77
*965 PHY_EDGE_ROW_32_Right_32
*966 PHY_EDGE_ROW_33_Left_78
*967 PHY_EDGE_ROW_33_Right_33
*968 PHY_EDGE_ROW_34_Left_79
*969 PHY_EDGE_ROW_34_Right_34
*970 PHY_EDGE_ROW_35_Left_80
*971 PHY_EDGE_ROW_35_Right_35
*972 PHY_EDGE_ROW_36_Left_81
*973 PHY_EDGE_ROW_36_Right_36
*974 PHY_EDGE_ROW_37_Left_82
*975 PHY_EDGE_ROW_37_Right_37
*976 PHY_EDGE_ROW_38_Left_83
*977 PHY_EDGE_ROW_38_Right_38
*978 PHY_EDGE_ROW_39_Left_84
*979 PHY_EDGE_ROW_39_Right_39
*980 PHY_EDGE_ROW_3_Left_48
*981 PHY_EDGE_ROW_3_Right_3
*982 PHY_EDGE_ROW_40_Left_85
*983 PHY_EDGE_ROW_40_Right_40
*984 PHY_EDGE_ROW_41_Left_86
*985 PHY_EDGE_ROW_41_Right_41
*986 PHY_EDGE_ROW_42_Left_87
*987 PHY_EDGE_ROW_42_Right_42
*988 PHY_EDGE_ROW_43_Left_88
*989 PHY_EDGE_ROW_43_Right_43
*990 PHY_EDGE_ROW_44_Left_89
*991 PHY_EDGE_ROW_44_Right_44
*992 PHY_EDGE_ROW_4_Left_49
*993 PHY_EDGE_ROW_4_Right_4
*994 PHY_EDGE_ROW_5_Left_50
*995 PHY_EDGE_ROW_5_Right_5
*996 PHY_EDGE_ROW_6_Left_51
*997 PHY_EDGE_ROW_6_Right_6
*998 PHY_EDGE_ROW_7_Left_52
*999 PHY_EDGE_ROW_7_Right_7
*1000 PHY_EDGE_ROW_8_Left_53
*1001 PHY_EDGE_ROW_8_Right_8
*1002 PHY_EDGE_ROW_9_Left_54
*1003 PHY_EDGE_ROW_9_Right_9
*1004 TAP_TAPCELL_ROW_0_90
*1005 TAP_TAPCELL_ROW_0_91
*1006 TAP_TAPCELL_ROW_0_92
*1007 TAP_TAPCELL_ROW_0_93
*1008 TAP_TAPCELL_ROW_0_94
*1009 TAP_TAPCELL_ROW_0_95
*1010 TAP_TAPCELL_ROW_0_96
*1011 TAP_TAPCELL_ROW_0_97
*1012 TAP_TAPCELL_ROW_0_98
*1013 TAP_TAPCELL_ROW_0_99
*1014 TAP_TAPCELL_ROW_10_140
*1015 TAP_TAPCELL_ROW_10_141
*1016 TAP_TAPCELL_ROW_10_142
*1017 TAP_TAPCELL_ROW_10_143
*1018 TAP_TAPCELL_ROW_10_144
*1019 TAP_TAPCELL_ROW_11_145
*1020 TAP_TAPCELL_ROW_11_146
*1021 TAP_TAPCELL_ROW_11_147
*1022 TAP_TAPCELL_ROW_11_148
*1023 TAP_TAPCELL_ROW_12_149
*1024 TAP_TAPCELL_ROW_12_150
*1025 TAP_TAPCELL_ROW_12_151
*1026 TAP_TAPCELL_ROW_12_152
*1027 TAP_TAPCELL_ROW_12_153
*1028 TAP_TAPCELL_ROW_13_154
*1029 TAP_TAPCELL_ROW_13_155
*1030 TAP_TAPCELL_ROW_13_156
*1031 TAP_TAPCELL_ROW_13_157
*1032 TAP_TAPCELL_ROW_14_158
*1033 TAP_TAPCELL_ROW_14_159
*1034 TAP_TAPCELL_ROW_14_160
*1035 TAP_TAPCELL_ROW_14_161
*1036 TAP_TAPCELL_ROW_14_162
*1037 TAP_TAPCELL_ROW_15_163
*1038 TAP_TAPCELL_ROW_15_164
*1039 TAP_TAPCELL_ROW_15_165
*1040 TAP_TAPCELL_ROW_15_166
*1041 TAP_TAPCELL_ROW_16_167
*1042 TAP_TAPCELL_ROW_16_168
*1043 TAP_TAPCELL_ROW_16_169
*1044 TAP_TAPCELL_ROW_16_170
*1045 TAP_TAPCELL_ROW_16_171
*1046 TAP_TAPCELL_ROW_17_172
*1047 TAP_TAPCELL_ROW_17_173
*1048 TAP_TAPCELL_ROW_17_174
*1049 TAP_TAPCELL_ROW_17_175
*1050 TAP_TAPCELL_ROW_18_176
*1051 TAP_TAPCELL_ROW_18_177
*1052 TAP_TAPCELL_ROW_18_178
*1053 TAP_TAPCELL_ROW_18_179
*1054 TAP_TAPCELL_ROW_18_180
*1055 TAP_TAPCELL_ROW_19_181
*1056 TAP_TAPCELL_ROW_19_182
*1057 TAP_TAPCELL_ROW_19_183
*1058 TAP_TAPCELL_ROW_19_184
*1059 TAP_TAPCELL_ROW_1_100
*1060 TAP_TAPCELL_ROW_1_101
*1061 TAP_TAPCELL_ROW_1_102
*1062 TAP_TAPCELL_ROW_1_103
*1063 TAP_TAPCELL_ROW_20_185
*1064 TAP_TAPCELL_ROW_20_186
*1065 TAP_TAPCELL_ROW_20_187
*1066 TAP_TAPCELL_ROW_20_188
*1067 TAP_TAPCELL_ROW_20_189
*1068 TAP_TAPCELL_ROW_21_190
*1069 TAP_TAPCELL_ROW_21_191
*1070 TAP_TAPCELL_ROW_21_192
*1071 TAP_TAPCELL_ROW_21_193
*1072 TAP_TAPCELL_ROW_22_194
*1073 TAP_TAPCELL_ROW_22_195
*1074 TAP_TAPCELL_ROW_22_196
*1075 TAP_TAPCELL_ROW_22_197
*1076 TAP_TAPCELL_ROW_22_198
*1077 TAP_TAPCELL_ROW_23_199
*1078 TAP_TAPCELL_ROW_23_200
*1079 TAP_TAPCELL_ROW_23_201
*1080 TAP_TAPCELL_ROW_23_202
*1081 TAP_TAPCELL_ROW_24_203
*1082 TAP_TAPCELL_ROW_24_204
*1083 TAP_TAPCELL_ROW_24_205
*1084 TAP_TAPCELL_ROW_24_206
*1085 TAP_TAPCELL_ROW_24_207
*1086 TAP_TAPCELL_ROW_25_208
*1087 TAP_TAPCELL_ROW_25_209
*1088 TAP_TAPCELL_ROW_25_210
*1089 TAP_TAPCELL_ROW_25_211
*1090 TAP_TAPCELL_ROW_26_212
*1091 TAP_TAPCELL_ROW_26_213
*1092 TAP_TAPCELL_ROW_26_214
*1093 TAP_TAPCELL_ROW_26_215
*1094 TAP_TAPCELL_ROW_26_216
*1095 TAP_TAPCELL_ROW_27_217
*1096 TAP_TAPCELL_ROW_27_218
*1097 TAP_TAPCELL_ROW_27_219
*1098 TAP_TAPCELL_ROW_27_220
*1099 TAP_TAPCELL_ROW_28_221
*1100 TAP_TAPCELL_ROW_28_222
*1101 TAP_TAPCELL_ROW_28_223
*1102 TAP_TAPCELL_ROW_28_224
*1103 TAP_TAPCELL_ROW_28_225
*1104 TAP_TAPCELL_ROW_29_226
*1105 TAP_TAPCELL_ROW_29_227
*1106 TAP_TAPCELL_ROW_29_228
*1107 TAP_TAPCELL_ROW_29_229
*1108 TAP_TAPCELL_ROW_2_104
*1109 TAP_TAPCELL_ROW_2_105
*1110 TAP_TAPCELL_ROW_2_106
*1111 TAP_TAPCELL_ROW_2_107
*1112 TAP_TAPCELL_ROW_2_108
*1113 TAP_TAPCELL_ROW_30_230
*1114 TAP_TAPCELL_ROW_30_231
*1115 TAP_TAPCELL_ROW_30_232
*1116 TAP_TAPCELL_ROW_30_233
*1117 TAP_TAPCELL_ROW_30_234
*1118 TAP_TAPCELL_ROW_31_235
*1119 TAP_TAPCELL_ROW_31_236
*1120 TAP_TAPCELL_ROW_31_237
*1121 TAP_TAPCELL_ROW_31_238
*1122 TAP_TAPCELL_ROW_32_239
*1123 TAP_TAPCELL_ROW_32_240
*1124 TAP_TAPCELL_ROW_32_241
*1125 TAP_TAPCELL_ROW_32_242
*1126 TAP_TAPCELL_ROW_32_243
*1127 TAP_TAPCELL_ROW_33_244
*1128 TAP_TAPCELL_ROW_33_245
*1129 TAP_TAPCELL_ROW_33_246
*1130 TAP_TAPCELL_ROW_33_247
*1131 TAP_TAPCELL_ROW_34_248
*1132 TAP_TAPCELL_ROW_34_249
*1133 TAP_TAPCELL_ROW_34_250
*1134 TAP_TAPCELL_ROW_34_251
*1135 TAP_TAPCELL_ROW_34_252
*1136 TAP_TAPCELL_ROW_35_253
*1137 TAP_TAPCELL_ROW_35_254
*1138 TAP_TAPCELL_ROW_35_255
*1139 TAP_TAPCELL_ROW_35_256
*1140 TAP_TAPCELL_ROW_36_257
*1141 TAP_TAPCELL_ROW_36_258
*1142 TAP_TAPCELL_ROW_36_259
*1143 TAP_TAPCELL_ROW_36_260
*1144 TAP_TAPCELL_ROW_36_261
*1145 TAP_TAPCELL_ROW_37_262
*1146 TAP_TAPCELL_ROW_37_263
*1147 TAP_TAPCELL_ROW_37_264
*1148 TAP_TAPCELL_ROW_37_265
*1149 TAP_TAPCELL_ROW_38_266
*1150 TAP_TAPCELL_ROW_38_267
*1151 TAP_TAPCELL_ROW_38_268
*1152 TAP_TAPCELL_ROW_38_269
*1153 TAP_TAPCELL_ROW_38_270
*1154 TAP_TAPCELL_ROW_39_271
*1155 TAP_TAPCELL_ROW_39_272
*1156 TAP_TAPCELL_ROW_39_273
*1157 TAP_TAPCELL_ROW_39_274
*1158 TAP_TAPCELL_ROW_3_109
*1159 TAP_TAPCELL_ROW_3_110
*1160 TAP_TAPCELL_ROW_3_111
*1161 TAP_TAPCELL_ROW_3_112
*1162 TAP_TAPCELL_ROW_40_275
*1163 TAP_TAPCELL_ROW_40_276
*1164 TAP_TAPCELL_ROW_40_277
*1165 TAP_TAPCELL_ROW_40_278
*1166 TAP_TAPCELL_ROW_40_279
*1167 TAP_TAPCELL_ROW_41_280
*1168 TAP_TAPCELL_ROW_41_281
*1169 TAP_TAPCELL_ROW_41_282
*1170 TAP_TAPCELL_ROW_41_283
*1171 TAP_TAPCELL_ROW_42_284
*1172 TAP_TAPCELL_ROW_42_285
*1173 TAP_TAPCELL_ROW_42_286
*1174 TAP_TAPCELL_ROW_42_287
*1175 TAP_TAPCELL_ROW_42_288
*1176 TAP_TAPCELL_ROW_43_289
*1177 TAP_TAPCELL_ROW_43_290
*1178 TAP_TAPCELL_ROW_43_291
*1179 TAP_TAPCELL_ROW_43_292
*1180 TAP_TAPCELL_ROW_44_293
*1181 TAP_TAPCELL_ROW_44_294
*1182 TAP_TAPCELL_ROW_44_295
*1183 TAP_TAPCELL_ROW_44_296
*1184 TAP_TAPCELL_ROW_44_297
*1185 TAP_TAPCELL_ROW_44_298
*1186 TAP_TAPCELL_ROW_44_299
*1187 TAP_TAPCELL_ROW_44_300
*1188 TAP_TAPCELL_ROW_44_301
*1189 TAP_TAPCELL_ROW_44_302
*1190 TAP_TAPCELL_ROW_4_113
*1191 TAP_TAPCELL_ROW_4_114
*1192 TAP_TAPCELL_ROW_4_115
*1193 TAP_TAPCELL_ROW_4_116
*1194 TAP_TAPCELL_ROW_4_117
*1195 TAP_TAPCELL_ROW_5_118
*1196 TAP_TAPCELL_ROW_5_119
*1197 TAP_TAPCELL_ROW_5_120
*1198 TAP_TAPCELL_ROW_5_121
*1199 TAP_TAPCELL_ROW_6_122
*1200 TAP_TAPCELL_ROW_6_123
*1201 TAP_TAPCELL_ROW_6_124
*1202 TAP_TAPCELL_ROW_6_125
*1203 TAP_TAPCELL_ROW_6_126
*1204 TAP_TAPCELL_ROW_7_127
*1205 TAP_TAPCELL_ROW_7_128
*1206 TAP_TAPCELL_ROW_7_129
*1207 TAP_TAPCELL_ROW_7_130
*1208 TAP_TAPCELL_ROW_8_131
*1209 TAP_TAPCELL_ROW_8_132
*1210 TAP_TAPCELL_ROW_8_133
*1211 TAP_TAPCELL_ROW_8_134
*1212 TAP_TAPCELL_ROW_8_135
*1213 TAP_TAPCELL_ROW_9_136
*1214 TAP_TAPCELL_ROW_9_137
*1215 TAP_TAPCELL_ROW_9_138
*1216 TAP_TAPCELL_ROW_9_139
*1217 _104_
*1218 _105_
*1219 _106_
*1220 _107_
*1221 _108_
*1222 _109_
*1223 _110_
*1224 _111_
*1225 _112_
*1226 _113_
*1227 _114_
*1228 _115_
*1229 _116_
*1230 _117_
*1231 _118_
*1232 _119_
*1233 _120_
*1234 _121_
*1235 _122_
*1236 _123_
*1237 _124_
*1238 _125_
*1239 _126_
*1240 _127_
*1241 _128_
*1242 _129_
*1243 _130_
*1244 _131_
*1245 _132_
*1246 _133_
*1247 _134_
*1248 _135_
*1249 _136_
*1250 _137_
*1251 _138_
*1252 _139_
*1253 _140_
*1254 _141_
*1255 _142_
*1256 _143_
*1257 _144_
*1258 _145_
*1259 _146_
*1260 _147_
*1261 _148_
*1262 _149_
*1263 _150_
*1264 _151_
*1265 _152_
*1266 _153_
*1267 _154_
*1268 _155_
*1269 _156_
*1270 _157_
*1271 _158_
*1272 _159_
*1273 _160_
*1274 _161_
*1275 _162_
*1276 _163_
*1277 _164_
*1278 _165_
*1279 _166_
*1280 _167_
*1281 _168_
*1282 _169_
*1283 _170_
*1284 _171_
*1285 _172_
*1286 _173_
*1287 _174_
*1288 _175_
*1289 _176_
*1290 _177_
*1291 _178_
*1292 _179_
*1293 _180_
*1294 _181_
*1295 _182_
*1296 _183_
*1297 _184_
*1298 _185_
*1299 _186_
*1300 _187_
*1301 _188_
*1302 _189_
*1303 _190_
*1304 _191_
*1305 _192_
*1306 _193_
*1307 _194_
*1308 _195_
*1309 _196_
*1310 _197_
*1311 _198_
*1312 _199_
*1313 _200_
*1314 _201_
*1315 _202_
*1316 _203_
*1317 _204_
*1318 _205_
*1319 _206_
*1320 _207_
*1321 _208_
*1322 _209_
*1323 _210_
*1324 _211_
*1325 _212_
*1326 _213_
*1327 _214_
*1328 _215_
*1329 _216_
*1330 _217_
*1331 _218_
*1332 _219_
*1333 _220_
*1334 _221_
*1335 _222_
*1336 _223_
*1337 _224_
*1338 _225_
*1339 _226_
*1340 _227_
*1341 _228_
*1342 _229_
*1343 _230_
*1344 _231_
*1345 _232_
*1346 _233_
*1347 _236_
*1348 _237_
*1349 clkbuf_0_clk
*1350 clkbuf_1_0__f_clk
*1351 clkbuf_1_1__f_clk
*1352 ita17_25
*1353 ita17_26
*1354 output1
*1355 output10
*1356 output11
*1357 output12
*1358 output13
*1359 output14
*1360 output15
*1361 output16
*1362 output17
*1363 output18
*1364 output19
*1365 output2
*1366 output20
*1367 output21
*1368 output22
*1369 output23
*1370 output24
*1371 output3
*1372 output4
*1373 output5
*1374 output6
*1375 output7
*1376 output8
*1377 output9

*PORTS
clk I
segm[0] O
segm[10] O
segm[11] O
segm[12] O
segm[13] O
segm[1] O
segm[2] O
segm[3] O
segm[4] O
segm[5] O
segm[6] O
segm[7] O
segm[8] O
segm[9] O
sel[0] O
sel[10] O
sel[11] O
sel[1] O
sel[2] O
sel[3] O
sel[4] O
sel[5] O
sel[6] O
sel[7] O
sel[8] O
sel[9] O

*D_NET *1 0.0120852
*CONN
*P clk I
*I *191:I I *D gf180mcu_fd_sc_mcu7t5v0__antenna
*I *1349:I I *D gf180mcu_fd_sc_mcu7t5v0__clkbuf_16
*CAP
1 clk 0.00431209
2 *191:I 0
3 *1349:I 9.51865e-05
4 *1:15 0.00440728
5 *1349:I *97:14 0.000337297
6 *1349:I *102:8 0.000768742
7 *1:15 *1232:I 0.000478485
8 *1:15 *1300:A2 3.56825e-05
9 *1:15 *95:18 0.00019545
10 *1:15 *103:10 0.000199701
11 *1:15 *103:25 9.94174e-05
12 *1:15 *103:40 0.000170303
13 *1:15 *125:46 2.07891e-05
14 *1:15 *135:173 0.00021556
15 *1:15 *135:177 0.000177718
16 *1:15 *138:10 0.000571475
*RES
1 clk *1:15 45.762 
2 *1:15 *1349:I 6.552 
3 *1:15 *191:I 4.5 
*END

*D_NET *2 0.00046434
*CONN
*P segm[0] O
*I *1354:Z O *D gf180mcu_fd_sc_mcu7t5v0__buf_8
*CAP
1 segm[0] 0.00023217
2 *1354:Z 0.00023217
*RES
1 *1354:Z segm[0] 10.71 
*END

*D_NET *3 0.00209919
*CONN
*P segm[10] O
*I *1365:Z O *D gf180mcu_fd_sc_mcu7t5v0__buf_8
*CAP
1 segm[10] 0.000891861
2 *1365:Z 0.000891861
3 segm[10] segm[13] 0.000315467
*RES
1 *1365:Z segm[10] 20.302 
*END

*D_NET *4 0.00046434
*CONN
*P segm[11] O
*I *1371:Z O *D gf180mcu_fd_sc_mcu7t5v0__buf_8
*CAP
1 segm[11] 0.00023217
2 *1371:Z 0.00023217
*RES
1 *1371:Z segm[11] 10.71 
*END

*D_NET *5 0.000618069
*CONN
*P segm[12] O
*I *1372:Z O *D gf180mcu_fd_sc_mcu7t5v0__buf_8
*CAP
1 segm[12] 0.000281529
2 *1372:Z 0.000281529
3 segm[12] segm[2] 5.50106e-05
*RES
1 *1372:Z segm[12] 11.09 
*END

*D_NET *6 0.00233378
*CONN