*SPEF "ieee 1481-1999"
*DESIGN "ita1"
*DATE "11:11:11 Fri 11 11, 1111"
*VENDOR "OpenRCX"
*PROGRAM "Parallel Extraction"
*VERSION "1.0"
*DESIGN_FLOW "NAME_SCOPE LOCAL" "PIN_CAP NONE"
*DIVIDER /
*DELIMITER :
*BUS_DELIMITER []
*T_UNIT 1 NS
*C_UNIT 1 PF
*R_UNIT 1 OHM
*L_UNIT 1 HENRY

*NAME_MAP
*1 clk
*2 net25
*3 segm[10]
*4 segm[11]
*5 segm[12]
*6 segm[13]
*7 segm[1]
*8 segm[2]
*9 segm[3]
*10 segm[4]
*11 net26
*12 segm[6]
*13 segm[7]
*14 segm[8]
*15 segm[9]
*16 sel[0]
*17 sel[10]
*18 sel[11]
*19 sel[1]
*20 sel[2]
*21 sel[3]
*22 sel[4]
*23 sel[5]
*24 sel[6]
*25 sel[7]
*26 sel[8]
*27 sel[9]
*30 _000_
*31 _001_
*32 _002_
*33 _003_
*34 _004_
*35 _005_
*36 _006_
*37 _007_
*38 _008_
*39 _009_
*40 _010_
*41 _011_
*42 _012_
*43 _013_
*44 _014_
*45 _015_
*46 _016_
*47 _017_
*48 _018_
*49 _019_
*50 _020_
*51 _021_
*52 _022_
*53 _023_
*54 _024_
*55 _025_
*56 _026_
*57 _027_
*58 _028_
*59 _029_
*60 _030_
*61 _031_
*62 _032_
*63 _033_
*64 _034_
*65 _035_
*66 _036_
*67 _037_
*68 _038_
*69 _039_
*70 _040_
*71 _041_
*72 _042_
*73 _043_
*74 _044_
*75 _045_
*76 _046_
*77 _047_
*78 _048_
*79 _049_
*80 _050_
*81 _051_
*82 _052_
*83 _053_
*84 _054_
*85 _055_
*86 _056_
*87 _057_
*88 _058_
*89 _059_
*90 _060_
*91 _061_
*92 _062_
*93 _063_
*94 _064_
*95 _065_
*96 _066_
*97 _067_
*98 _068_
*99 _069_
*100 _070_
*101 _071_
*102 _072_
*103 _073_
*104 _074_
*105 _075_
*106 _076_
*107 _077_
*108 _078_
*109 _079_
*110 _080_
*111 _081_
*112 _082_
*113 _083_
*114 _084_
*115 _085_
*116 _086_
*117 _087_
*118 _088_
*119 _089_
*120 _090_
*121 _091_
*122 _092_
*123 _093_
*124 _094_
*125 _095_
*126 _096_
*127 _097_
*128 _098_
*129 _099_
*130 _100_
*131 _101_
*132 clknet_0_clk
*133 clknet_1_0__leaf_clk
*134 clknet_1_1__leaf_clk
*135 dut1\.count\[0\]
*136 dut1\.count\[1\]
*137 dut1\.count\[2\]
*138 dut1\.count\[3\]
*139 net1
*140 net10
*141 net11
*142 net12
*143 net13
*144 net14
*145 net15
*146 net16
*147 net17
*148 net18
*149 net19
*150 net2
*151 net20
*152 net21
*153 net22
*154 net23
*155 net24
*156 net3
*157 net4
*158 net5
*159 net6
*160 net7
*161 net8
*162 net9
*163 ANTENNA__205__CLK
*164 ANTENNA__208__CLK
*165 ANTENNA__209__CLK
*166 ANTENNA__210__CLK
*167 ANTENNA__211__CLK
*168 ANTENNA__212__CLK
*169 ANTENNA__213__CLK
*170 ANTENNA__215__CLK
*171 ANTENNA__216__CLK
*172 ANTENNA__217__CLK
*173 ANTENNA__219__CLK
*174 ANTENNA__220__CLK
*175 ANTENNA__221__CLK
*176 ANTENNA_clkbuf_0_clk_I
*177 FILLER_0_0_104
*178 FILLER_0_0_138
*179 FILLER_0_0_142
*180 FILLER_0_0_198
*181 FILLER_0_0_2
*182 FILLER_0_0_202
*183 FILLER_0_0_232
*184 FILLER_0_0_236
*185 FILLER_0_0_240
*186 FILLER_0_0_274
*187 FILLER_0_0_312
*188 FILLER_0_0_328
*189 FILLER_0_0_336
*190 FILLER_0_0_342
*191 FILLER_0_0_346
*192 FILLER_0_0_348
*193 FILLER_0_0_36
*194 FILLER_0_0_70
*195 FILLER_0_10_101
*196 FILLER_0_10_107
*197 FILLER_0_10_171
*198 FILLER_0_10_177
*199 FILLER_0_10_2
*200 FILLER_0_10_241
*201 FILLER_0_10_247
*202 FILLER_0_10_311
*203 FILLER_0_10_317
*204 FILLER_0_10_34
*205 FILLER_0_10_37
*206 FILLER_0_11_136
*207 FILLER_0_11_142
*208 FILLER_0_11_2
*209 FILLER_0_11_206
*210 FILLER_0_11_212
*211 FILLER_0_11_276
*212 FILLER_0_11_282
*213 FILLER_0_11_346
*214 FILLER_0_11_348
*215 FILLER_0_11_66
*216 FILLER_0_11_72
*217 FILLER_0_12_101
*218 FILLER_0_12_107
*219 FILLER_0_12_171
*220 FILLER_0_12_177
*221 FILLER_0_12_2
*222 FILLER_0_12_241
*223 FILLER_0_12_247
*224 FILLER_0_12_311
*225 FILLER_0_12_317
*226 FILLER_0_12_34
*227 FILLER_0_12_37
*228 FILLER_0_13_136
*229 FILLER_0_13_171
*230 FILLER_0_13_175
*231 FILLER_0_13_2
*232 FILLER_0_13_207
*233 FILLER_0_13_209
*234 FILLER_0_13_212
*235 FILLER_0_13_276
*236 FILLER_0_13_282
*237 FILLER_0_13_346
*238 FILLER_0_13_348
*239 FILLER_0_13_66
*240 FILLER_0_13_72
*241 FILLER_0_14_101
*242 FILLER_0_14_107
*243 FILLER_0_14_111
*244 FILLER_0_14_116
*245 FILLER_0_14_124
*246 FILLER_0_14_126
*247 FILLER_0_14_129
*248 FILLER_0_14_137
*249 FILLER_0_14_141
*250 FILLER_0_14_143
*251 FILLER_0_14_177
*252 FILLER_0_14_2
*253 FILLER_0_14_241
*254 FILLER_0_14_247
*255 FILLER_0_14_311
*256 FILLER_0_14_317
*257 FILLER_0_14_34
*258 FILLER_0_14_37
*259 FILLER_0_15_135
*260 FILLER_0_15_139
*261 FILLER_0_15_142
*262 FILLER_0_15_150
*263 FILLER_0_15_176
*264 FILLER_0_15_180
*265 FILLER_0_15_2
*266 FILLER_0_15_241
*267 FILLER_0_15_273
*268 FILLER_0_15_277
*269 FILLER_0_15_279
*270 FILLER_0_15_282
*271 FILLER_0_15_346
*272 FILLER_0_15_348
*273 FILLER_0_15_66
*274 FILLER_0_15_72
*275 FILLER_0_15_88
*276 FILLER_0_15_96
*277 FILLER_0_16_101
*278 FILLER_0_16_107
*279 FILLER_0_16_131
*280 FILLER_0_16_139
*281 FILLER_0_16_141
*282 FILLER_0_16_153
*283 FILLER_0_16_169
*284 FILLER_0_16_173
*285 FILLER_0_16_177
*286 FILLER_0_16_2
*287 FILLER_0_16_203
*288 FILLER_0_16_211
*289 FILLER_0_16_215
*290 FILLER_0_16_247
*291 FILLER_0_16_311
*292 FILLER_0_16_317
*293 FILLER_0_16_321
*294 FILLER_0_16_34
*295 FILLER_0_16_37
*296 FILLER_0_17_104
*297 FILLER_0_17_128
*298 FILLER_0_17_132
*299 FILLER_0_17_156
*300 FILLER_0_17_160
*301 FILLER_0_17_168
*302 FILLER_0_17_172
*303 FILLER_0_17_181
*304 FILLER_0_17_209
*305 FILLER_0_17_212
*306 FILLER_0_17_216
*307 FILLER_0_17_244
*308 FILLER_0_17_276
*309 FILLER_0_17_28
*310 FILLER_0_17_282
*311 FILLER_0_17_314
*312 FILLER_0_17_322
*313 FILLER_0_17_60
*314 FILLER_0_17_68
*315 FILLER_0_17_72
*316 FILLER_0_18_101
*317 FILLER_0_18_136
*318 FILLER_0_18_138
*319 FILLER_0_18_165
*320 FILLER_0_18_173
*321 FILLER_0_18_177
*322 FILLER_0_18_179
*323 FILLER_0_18_2
*324 FILLER_0_18_209
*325 FILLER_0_18_241
*326 FILLER_0_18_247
*327 FILLER_0_18_311
*328 FILLER_0_18_317
*329 FILLER_0_18_34
*330 FILLER_0_18_37
*331 FILLER_0_18_69
*332 FILLER_0_18_85
*333 FILLER_0_18_93
*334 FILLER_0_19_111
*335 FILLER_0_19_122
*336 FILLER_0_19_130
*337 FILLER_0_19_142
*338 FILLER_0_19_175
*339 FILLER_0_19_183
*340 FILLER_0_19_201
*341 FILLER_0_19_209
*342 FILLER_0_19_212
*343 FILLER_0_19_216
*344 FILLER_0_19_225
*345 FILLER_0_19_227
*346 FILLER_0_19_233
*347 FILLER_0_19_263
*348 FILLER_0_19_279
*349 FILLER_0_19_28
*350 FILLER_0_19_282
*351 FILLER_0_19_346
*352 FILLER_0_19_348
*353 FILLER_0_19_60
*354 FILLER_0_19_68
*355 FILLER_0_19_72
*356 FILLER_0_19_80
*357 FILLER_0_1_136
*358 FILLER_0_1_142
*359 FILLER_0_1_158
*360 FILLER_0_1_162
*361 FILLER_0_1_189
*362 FILLER_0_1_2
*363 FILLER_0_1_205
*364 FILLER_0_1_209
*365 FILLER_0_1_212
*366 FILLER_0_1_276
*367 FILLER_0_1_282
*368 FILLER_0_1_346
*369 FILLER_0_1_348
*370 FILLER_0_1_66
*371 FILLER_0_1_72
*372 FILLER_0_20_101
*373 FILLER_0_20_107
*374 FILLER_0_20_113
*375 FILLER_0_20_123
*376 FILLER_0_20_133
*377 FILLER_0_20_177
*378 FILLER_0_20_189
*379 FILLER_0_20_2
*380 FILLER_0_20_220
*381 FILLER_0_20_224
*382 FILLER_0_20_234
*383 FILLER_0_20_236
*384 FILLER_0_20_265
*385 FILLER_0_20_297
*386 FILLER_0_20_313
*387 FILLER_0_20_317
*388 FILLER_0_20_321
*389 FILLER_0_20_34
*390 FILLER_0_20_37
*391 FILLER_0_21_122
*392 FILLER_0_21_137
*393 FILLER_0_21_139
*394 FILLER_0_21_150
*395 FILLER_0_21_152
*396 FILLER_0_21_157
*397 FILLER_0_21_2
*398 FILLER_0_21_202
*399 FILLER_0_21_216
*400 FILLER_0_21_261
*401 FILLER_0_21_277
*402 FILLER_0_21_279
*403 FILLER_0_21_282
*404 FILLER_0_21_314
*405 FILLER_0_21_322
*406 FILLER_0_21_66
*407 FILLER_0_21_72
*408 FILLER_0_21_80
*409 FILLER_0_21_84
*410 FILLER_0_21_86
*411 FILLER_0_22_101
*412 FILLER_0_22_107
*413 FILLER_0_22_115
*414 FILLER_0_22_177
*415 FILLER_0_22_192
*416 FILLER_0_22_194
*417 FILLER_0_22_2
*418 FILLER_0_22_247
*419 FILLER_0_22_311
*420 FILLER_0_22_317
*421 FILLER_0_22_34
*422 FILLER_0_22_37
*423 FILLER_0_23_117
*424 FILLER_0_23_121
*425 FILLER_0_23_123
*426 FILLER_0_23_130
*427 FILLER_0_23_142
*428 FILLER_0_23_157
*429 FILLER_0_23_159
*430 FILLER_0_23_2
*431 FILLER_0_23_212
*432 FILLER_0_23_228
*433 FILLER_0_23_258
*434 FILLER_0_23_274
*435 FILLER_0_23_278
*436 FILLER_0_23_282
*437 FILLER_0_23_314
*438 FILLER_0_23_322
*439 FILLER_0_23_66
*440 FILLER_0_23_72
*441 FILLER_0_24_101
*442 FILLER_0_24_107
*443 FILLER_0_24_117
*444 FILLER_0_24_119
*445 FILLER_0_24_136
*446 FILLER_0_24_140
*447 FILLER_0_24_183
*448 FILLER_0_24_185
*449 FILLER_0_24_2
*450 FILLER_0_24_211
*451 FILLER_0_24_227
*452 FILLER_0_24_255
*453 FILLER_0_24_287
*454 FILLER_0_24_303
*455 FILLER_0_24_311
*456 FILLER_0_24_317
*457 FILLER_0_24_321
*458 FILLER_0_24_34
*459 FILLER_0_24_37
*460 FILLER_0_25_128
*461 FILLER_0_25_136
*462 FILLER_0_25_156
*463 FILLER_0_25_176
*464 FILLER_0_25_180
*465 FILLER_0_25_2
*466 FILLER_0_25_212
*467 FILLER_0_25_228
*468 FILLER_0_25_258
*469 FILLER_0_25_274
*470 FILLER_0_25_278
*471 FILLER_0_25_282
*472 FILLER_0_25_314
*473 FILLER_0_25_322
*474 FILLER_0_25_66
*475 FILLER_0_25_72
*476 FILLER_0_25_80
*477 FILLER_0_25_84
*478 FILLER_0_25_86
*479 FILLER_0_26_101
*480 FILLER_0_26_107
*481 FILLER_0_26_115
*482 FILLER_0_26_118
*483 FILLER_0_26_150
*484 FILLER_0_26_162
*485 FILLER_0_26_170
*486 FILLER_0_26_174
*487 FILLER_0_26_177
*488 FILLER_0_26_185
*489 FILLER_0_26_187
*490 FILLER_0_26_192
*491 FILLER_0_26_2
*492 FILLER_0_26_224
*493 FILLER_0_26_228
*494 FILLER_0_26_230
*495 FILLER_0_26_236
*496 FILLER_0_26_243
*497 FILLER_0_26_247
*498 FILLER_0_26_311
*499 FILLER_0_26_317
*500 FILLER_0_26_321
*501 FILLER_0_26_34
*502 FILLER_0_26_37
*503 FILLER_0_27_121
*504 FILLER_0_27_125
*505 FILLER_0_27_133
*506 FILLER_0_27_137
*507 FILLER_0_27_139
*508 FILLER_0_27_142
*509 FILLER_0_27_150
*510 FILLER_0_27_159
*511 FILLER_0_27_167
*512 FILLER_0_27_175
*513 FILLER_0_27_183
*514 FILLER_0_27_185
*515 FILLER_0_27_192
*516 FILLER_0_27_2
*517 FILLER_0_27_208
*518 FILLER_0_27_212
*519 FILLER_0_27_220
*520 FILLER_0_27_253
*521 FILLER_0_27_269
*522 FILLER_0_27_277
*523 FILLER_0_27_279
*524 FILLER_0_27_282
*525 FILLER_0_27_314
*526 FILLER_0_27_322
*527 FILLER_0_27_66
*528 FILLER_0_27_72
*529 FILLER_0_27_88
*530 FILLER_0_28_101
*531 FILLER_0_28_111
*532 FILLER_0_28_115
*533 FILLER_0_28_125
*534 FILLER_0_28_127
*535 FILLER_0_28_130
*536 FILLER_0_28_137
*537 FILLER_0_28_163
*538 FILLER_0_28_174
*539 FILLER_0_28_177
*540 FILLER_0_28_185
*541 FILLER_0_28_2
*542 FILLER_0_28_220
*543 FILLER_0_28_236
*544 FILLER_0_28_244
*545 FILLER_0_28_247
*546 FILLER_0_28_311
*547 FILLER_0_28_317
*548 FILLER_0_28_34
*549 FILLER_0_28_37
*550 FILLER_0_29_137
*551 FILLER_0_29_139
*552 FILLER_0_29_171
*553 FILLER_0_29_177
*554 FILLER_0_29_181
*555 FILLER_0_29_189
*556 FILLER_0_29_191
*557 FILLER_0_29_2
*558 FILLER_0_29_212
*559 FILLER_0_29_276
*560 FILLER_0_29_282
*561 FILLER_0_29_346
*562 FILLER_0_29_348
*563 FILLER_0_29_66
*564 FILLER_0_29_72
*565 FILLER_0_29_88
*566 FILLER_0_29_96
*567 FILLER_0_29_98
*568 FILLER_0_2_101
*569 FILLER_0_2_107
*570 FILLER_0_2_171
*571 FILLER_0_2_177
*572 FILLER_0_2_193
*573 FILLER_0_2_197
*574 FILLER_0_2_2
*575 FILLER_0_2_225
*576 FILLER_0_2_241
*577 FILLER_0_2_247
*578 FILLER_0_2_311
*579 FILLER_0_2_317
*580 FILLER_0_2_34
*581 FILLER_0_2_37
*582 FILLER_0_30_101
*583 FILLER_0_30_107
*584 FILLER_0_30_111
*585 FILLER_0_30_113
*586 FILLER_0_30_118
*587 FILLER_0_30_126
*588 FILLER_0_30_130
*589 FILLER_0_30_165
*590 FILLER_0_30_169
*591 FILLER_0_30_173
*592 FILLER_0_30_177
*593 FILLER_0_30_185
*594 FILLER_0_30_189
*595 FILLER_0_30_191
*596 FILLER_0_30_221
*597 FILLER_0_30_237
*598 FILLER_0_30_247
*599 FILLER_0_30_28
*600 FILLER_0_30_311
*601 FILLER_0_30_317
*602 FILLER_0_30_32
*603 FILLER_0_30_34
*604 FILLER_0_30_37
*605 FILLER_0_31_136
*606 FILLER_0_31_142
*607 FILLER_0_31_144
*608 FILLER_0_31_149
*609 FILLER_0_31_194
*610 FILLER_0_31_2
*611 FILLER_0_31_203
*612 FILLER_0_31_207
*613 FILLER_0_31_209
*614 FILLER_0_31_212
*615 FILLER_0_31_276
*616 FILLER_0_31_282
*617 FILLER_0_31_346
*618 FILLER_0_31_348
*619 FILLER_0_31_66
*620 FILLER_0_31_72
*621 FILLER_0_32_101
*622 FILLER_0_32_107
*623 FILLER_0_32_171
*624 FILLER_0_32_177
*625 FILLER_0_32_2
*626 FILLER_0_32_241
*627 FILLER_0_32_247
*628 FILLER_0_32_311
*629 FILLER_0_32_317
*630 FILLER_0_32_34
*631 FILLER_0_32_37
*632 FILLER_0_33_136
*633 FILLER_0_33_142
*634 FILLER_0_33_2
*635 FILLER_0_33_206
*636 FILLER_0_33_212
*637 FILLER_0_33_276
*638 FILLER_0_33_282
*639 FILLER_0_33_346
*640 FILLER_0_33_348
*641 FILLER_0_33_66
*642 FILLER_0_33_72
*643 FILLER_0_34_101
*644 FILLER_0_34_107
*645 FILLER_0_34_171
*646 FILLER_0_34_177
*647 FILLER_0_34_2
*648 FILLER_0_34_241
*649 FILLER_0_34_247
*650 FILLER_0_34_311
*651 FILLER_0_34_317
*652 FILLER_0_34_34
*653 FILLER_0_34_37
*654 FILLER_0_35_136
*655 FILLER_0_35_142
*656 FILLER_0_35_2
*657 FILLER_0_35_206
*658 FILLER_0_35_212
*659 FILLER_0_35_276
*660 FILLER_0_35_282
*661 FILLER_0_35_346
*662 FILLER_0_35_348
*663 FILLER_0_35_66
*664 FILLER_0_35_72
*665 FILLER_0_36_101
*666 FILLER_0_36_107
*667 FILLER_0_36_171
*668 FILLER_0_36_177
*669 FILLER_0_36_2
*670 FILLER_0_36_241
*671 FILLER_0_36_247
*672 FILLER_0_36_311
*673 FILLER_0_36_317
*674 FILLER_0_36_34
*675 FILLER_0_36_37
*676 FILLER_0_37_136
*677 FILLER_0_37_142
*678 FILLER_0_37_2
*679 FILLER_0_37_206
*680 FILLER_0_37_212
*681 FILLER_0_37_276
*682 FILLER_0_37_282
*683 FILLER_0_37_346
*684 FILLER_0_37_348
*685 FILLER_0_37_66
*686 FILLER_0_37_72
*687 FILLER_0_38_101
*688 FILLER_0_38_107
*689 FILLER_0_38_171
*690 FILLER_0_38_177
*691 FILLER_0_38_2
*692 FILLER_0_38_241
*693 FILLER_0_38_247
*694 FILLER_0_38_311
*695 FILLER_0_38_317
*696 FILLER_0_38_34
*697 FILLER_0_38_37
*698 FILLER_0_39_136
*699 FILLER_0_39_142
*700 FILLER_0_39_2
*701 FILLER_0_39_206
*702 FILLER_0_39_212
*703 FILLER_0_39_276
*704 FILLER_0_39_282
*705 FILLER_0_39_346
*706 FILLER_0_39_348
*707 FILLER_0_39_66
*708 FILLER_0_39_72
*709 FILLER_0_3_136
*710 FILLER_0_3_142
*711 FILLER_0_3_2
*712 FILLER_0_3_206
*713 FILLER_0_3_212
*714 FILLER_0_3_276
*715 FILLER_0_3_282
*716 FILLER_0_3_346
*717 FILLER_0_3_348
*718 FILLER_0_3_66
*719 FILLER_0_3_72
*720 FILLER_0_40_101
*721 FILLER_0_40_107
*722 FILLER_0_40_171
*723 FILLER_0_40_177
*724 FILLER_0_40_2
*725 FILLER_0_40_241
*726 FILLER_0_40_247
*727 FILLER_0_40_311
*728 FILLER_0_40_317
*729 FILLER_0_40_34
*730 FILLER_0_40_37
*731 FILLER_0_41_136
*732 FILLER_0_41_142
*733 FILLER_0_41_2
*734 FILLER_0_41_206
*735 FILLER_0_41_212
*736 FILLER_0_41_276
*737 FILLER_0_41_282
*738 FILLER_0_41_346
*739 FILLER_0_41_348
*740 FILLER_0_41_66
*741 FILLER_0_41_72
*742 FILLER_0_42_101
*743 FILLER_0_42_107
*744 FILLER_0_42_123
*745 FILLER_0_42_153
*746 FILLER_0_42_169
*747 FILLER_0_42_173
*748 FILLER_0_42_177
*749 FILLER_0_42_2
*750 FILLER_0_42_241
*751 FILLER_0_42_247
*752 FILLER_0_42_311
*753 FILLER_0_42_317
*754 FILLER_0_42_34
*755 FILLER_0_42_37
*756 FILLER_0_43_136
*757 FILLER_0_43_142
*758 FILLER_0_43_150
*759 FILLER_0_43_154
*760 FILLER_0_43_2
*761 FILLER_0_43_207
*762 FILLER_0_43_209
*763 FILLER_0_43_212
*764 FILLER_0_43_216
*765 FILLER_0_43_243
*766 FILLER_0_43_275
*767 FILLER_0_43_279
*768 FILLER_0_43_282
*769 FILLER_0_43_346
*770 FILLER_0_43_348
*771 FILLER_0_43_66
*772 FILLER_0_43_72
*773 FILLER_0_44_104
*774 FILLER_0_44_138
*775 FILLER_0_44_142
*776 FILLER_0_44_172
*777 FILLER_0_44_176
*778 FILLER_0_44_2
*779 FILLER_0_44_206
*780 FILLER_0_44_210
*781 FILLER_0_44_237
*782 FILLER_0_44_240
*783 FILLER_0_44_256
*784 FILLER_0_44_258
*785 FILLER_0_44_263
*786 FILLER_0_44_271
*787 FILLER_0_44_274
*788 FILLER_0_44_308
*789 FILLER_0_44_342
*790 FILLER_0_44_346
*791 FILLER_0_44_348
*792 FILLER_0_44_36
*793 FILLER_0_44_70
*794 FILLER_0_4_101
*795 FILLER_0_4_107
*796 FILLER_0_4_171
*797 FILLER_0_4_177
*798 FILLER_0_4_2
*799 FILLER_0_4_241
*800 FILLER_0_4_247
*801 FILLER_0_4_311
*802 FILLER_0_4_317
*803 FILLER_0_4_34
*804 FILLER_0_4_37
*805 FILLER_0_5_136
*806 FILLER_0_5_142
*807 FILLER_0_5_2
*808 FILLER_0_5_206
*809 FILLER_0_5_212
*810 FILLER_0_5_276
*811 FILLER_0_5_282
*812 FILLER_0_5_346
*813 FILLER_0_5_348
*814 FILLER_0_5_66
*815 FILLER_0_5_72
*816 FILLER_0_6_101
*817 FILLER_0_6_107
*818 FILLER_0_6_171
*819 FILLER_0_6_177
*820 FILLER_0_6_2
*821 FILLER_0_6_241
*822 FILLER_0_6_247
*823 FILLER_0_6_311
*824 FILLER_0_6_317
*825 FILLER_0_6_34
*826 FILLER_0_6_37
*827 FILLER_0_7_136
*828 FILLER_0_7_142
*829 FILLER_0_7_2
*830 FILLER_0_7_206
*831 FILLER_0_7_212
*832 FILLER_0_7_276
*833 FILLER_0_7_282
*834 FILLER_0_7_346
*835 FILLER_0_7_348
*836 FILLER_0_7_66
*837 FILLER_0_7_72
*838 FILLER_0_8_101
*839 FILLER_0_8_107
*840 FILLER_0_8_171
*841 FILLER_0_8_177
*842 FILLER_0_8_2
*843 FILLER_0_8_241
*844 FILLER_0_8_247
*845 FILLER_0_8_311
*846 FILLER_0_8_317
*847 FILLER_0_8_34
*848 FILLER_0_8_37
*849 FILLER_0_9_136
*850 FILLER_0_9_142
*851 FILLER_0_9_2
*852 FILLER_0_9_206
*853 FILLER_0_9_212
*854 FILLER_0_9_276
*855 FILLER_0_9_282
*856 FILLER_0_9_346
*857 FILLER_0_9_348
*858 FILLER_0_9_66
*859 FILLER_0_9_72
*860 PHY_EDGE_ROW_0_Left_45
*861 PHY_EDGE_ROW_0_Right_0
*862 PHY_EDGE_ROW_10_Left_55
*863 PHY_EDGE_ROW_10_Right_10
*864 PHY_EDGE_ROW_11_Left_56
*865 PHY_EDGE_ROW_11_Right_11
*866 PHY_EDGE_ROW_12_Left_57
*867 PHY_EDGE_ROW_12_Right_12
*868 PHY_EDGE_ROW_13_Left_58
*869 PHY_EDGE_ROW_13_Right_13
*870 PHY_EDGE_ROW_14_Left_59
*871 PHY_EDGE_ROW_14_Right_14
*872 PHY_EDGE_ROW_15_Left_60
*873 PHY_EDGE_ROW_15_Right_15
*874 PHY_EDGE_ROW_16_Left_61
*875 PHY_EDGE_ROW_16_Right_16
*876 PHY_EDGE_ROW_17_Left_62
*877 PHY_EDGE_ROW_17_Right_17
*878 PHY_EDGE_ROW_18_Left_63
*879 PHY_EDGE_ROW_18_Right_18
*880 PHY_EDGE_ROW_19_Left_64
*881 PHY_EDGE_ROW_19_Right_19
*882 PHY_EDGE_ROW_1_Left_46
*883 PHY_EDGE_ROW_1_Right_1
*884 PHY_EDGE_ROW_20_Left_65
*885 PHY_EDGE_ROW_20_Right_20
*886 PHY_EDGE_ROW_21_Left_66
*887 PHY_EDGE_ROW_21_Right_21
*888 PHY_EDGE_ROW_22_Left_67
*889 PHY_EDGE_ROW_22_Right_22
*890 PHY_EDGE_ROW_23_Left_68
*891 PHY_EDGE_ROW_23_Right_23
*892 PHY_EDGE_ROW_24_Left_69
*893 PHY_EDGE_ROW_24_Right_24
*894 PHY_EDGE_ROW_25_Left_70
*895 PHY_EDGE_ROW_25_Right_25
*896 PHY_EDGE_ROW_26_Left_71
*897 PHY_EDGE_ROW_26_Right_26
*898 PHY_EDGE_ROW_27_Left_72
*899 PHY_EDGE_ROW_27_Right_27
*900 PHY_EDGE_ROW_28_Left_73
*901 PHY_EDGE_ROW_28_Right_28
*902 PHY_EDGE_ROW_29_Left_74
*903 PHY_EDGE_ROW_29_Right_29
*904 PHY_EDGE_ROW_2_Left_47
*905 PHY_EDGE_ROW_2_Right_2
*906 PHY_EDGE_ROW_30_Left_75
*907 PHY_EDGE_ROW_30_Right_30
*908 PHY_EDGE_ROW_31_Left_76
*909 PHY_EDGE_ROW_31_Right_31
*910 PHY_EDGE_ROW_32_Left_77
*911 PHY_EDGE_ROW_32_Right_32
*912 PHY_EDGE_ROW_33_Left_78
*913 PHY_EDGE_ROW_33_Right_33
*914 PHY_EDGE_ROW_34_Left_79
*915 PHY_EDGE_ROW_34_Right_34
*916 PHY_EDGE_ROW_35_Left_80
*917 PHY_EDGE_ROW_35_Right_35
*918 PHY_EDGE_ROW_36_Left_81
*919 PHY_EDGE_ROW_36_Right_36
*920 PHY_EDGE_ROW_37_Left_82
*921 PHY_EDGE_ROW_37_Right_37
*922 PHY_EDGE_ROW_38_Left_83
*923 PHY_EDGE_ROW_38_Right_38
*924 PHY_EDGE_ROW_39_Left_84
*925 PHY_EDGE_ROW_39_Right_39
*926 PHY_EDGE_ROW_3_Left_48
*927 PHY_EDGE_ROW_3_Right_3
*928 PHY_EDGE_ROW_40_Left_85
*929 PHY_EDGE_ROW_40_Right_40
*930 PHY_EDGE_ROW_41_Left_86
*931 PHY_EDGE_ROW_41_Right_41
*932 PHY_EDGE_ROW_42_Left_87
*933 PHY_EDGE_ROW_42_Right_42
*934 PHY_EDGE_ROW_43_Left_88
*935 PHY_EDGE_ROW_43_Right_43
*936 PHY_EDGE_ROW_44_Left_89
*937 PHY_EDGE_ROW_44_Right_44
*938 PHY_EDGE_ROW_4_Left_49
*939 PHY_EDGE_ROW_4_Right_4
*940 PHY_EDGE_ROW_5_Left_50
*941 PHY_EDGE_ROW_5_Right_5
*942 PHY_EDGE_ROW_6_Left_51
*943 PHY_EDGE_ROW_6_Right_6
*944 PHY_EDGE_ROW_7_Left_52
*945 PHY_EDGE_ROW_7_Right_7
*946 PHY_EDGE_ROW_8_Left_53
*947 PHY_EDGE_ROW_8_Right_8
*948 PHY_EDGE_ROW_9_Left_54
*949 PHY_EDGE_ROW_9_Right_9
*950 TAP_TAPCELL_ROW_0_90
*951 TAP_TAPCELL_ROW_0_91
*952 TAP_TAPCELL_ROW_0_92
*953 TAP_TAPCELL_ROW_0_93
*954 TAP_TAPCELL_ROW_0_94
*955 TAP_TAPCELL_ROW_0_95
*956 TAP_TAPCELL_ROW_0_96
*957 TAP_TAPCELL_ROW_0_97
*958 TAP_TAPCELL_ROW_0_98
*959 TAP_TAPCELL_ROW_0_99
*960 TAP_TAPCELL_ROW_10_140
*961 TAP_TAPCELL_ROW_10_141
*962 TAP_TAPCELL_ROW_10_142
*963 TAP_TAPCELL_ROW_10_143
*964 TAP_TAPCELL_ROW_10_144
*965 TAP_TAPCELL_ROW_11_145
*966 TAP_TAPCELL_ROW_11_146
*967 TAP_TAPCELL_ROW_11_147
*968 TAP_TAPCELL_ROW_11_148
*969 TAP_TAPCELL_ROW_12_149
*970 TAP_TAPCELL_ROW_12_150
*971 TAP_TAPCELL_ROW_12_151
*972 TAP_TAPCELL_ROW_12_152
*973 TAP_TAPCELL_ROW_12_153
*974 TAP_TAPCELL_ROW_13_154
*975 TAP_TAPCELL_ROW_13_155
*976 TAP_TAPCELL_ROW_13_156
*977 TAP_TAPCELL_ROW_13_157
*978 TAP_TAPCELL_ROW_14_158
*979 TAP_TAPCELL_ROW_14_159
*980 TAP_TAPCELL_ROW_14_160
*981 TAP_TAPCELL_ROW_14_161
*982 TAP_TAPCELL_ROW_14_162
*983 TAP_TAPCELL_ROW_15_163
*984 TAP_TAPCELL_ROW_15_164
*985 TAP_TAPCELL_ROW_15_165
*986 TAP_TAPCELL_ROW_15_166
*987 TAP_TAPCELL_ROW_16_167
*988 TAP_TAPCELL_ROW_16_168
*989 TAP_TAPCELL_ROW_16_169
*990 TAP_TAPCELL_ROW_16_170
*991 TAP_TAPCELL_ROW_16_171
*992 TAP_TAPCELL_ROW_17_172
*993 TAP_TAPCELL_ROW_17_173
*994 TAP_TAPCELL_ROW_17_174
*995 TAP_TAPCELL_ROW_17_175
*996 TAP_TAPCELL_ROW_18_176
*997 TAP_TAPCELL_ROW_18_177
*998 TAP_TAPCELL_ROW_18_178
*999 TAP_TAPCELL_ROW_18_179
*1000 TAP_TAPCELL_ROW_18_180
*1001 TAP_TAPCELL_ROW_19_181
*1002 TAP_TAPCELL_ROW_19_182
*1003 TAP_TAPCELL_ROW_19_183
*1004 TAP_TAPCELL_ROW_19_184
*1005 TAP_TAPCELL_ROW_1_100
*1006 TAP_TAPCELL_ROW_1_101
*1007 TAP_TAPCELL_ROW_1_102
*1008 TAP_TAPCELL_ROW_1_103
*1009 TAP_TAPCELL_ROW_20_185
*1010 TAP_TAPCELL_ROW_20_186
*1011 TAP_TAPCELL_ROW_20_187
*1012 TAP_TAPCELL_ROW_20_188
*1013 TAP_TAPCELL_ROW_20_189
*1014 TAP_TAPCELL_ROW_21_190
*1015 TAP_TAPCELL_ROW_21_191
*1016 TAP_TAPCELL_ROW_21_192
*1017 TAP_TAPCELL_ROW_21_193
*1018 TAP_TAPCELL_ROW_22_194
*1019 TAP_TAPCELL_ROW_22_195
*1020 TAP_TAPCELL_ROW_22_196
*1021 TAP_TAPCELL_ROW_22_197
*1022 TAP_TAPCELL_ROW_22_198
*1023 TAP_TAPCELL_ROW_23_199
*1024 TAP_TAPCELL_ROW_23_200
*1025 TAP_TAPCELL_ROW_23_201
*1026 TAP_TAPCELL_ROW_23_202
*1027 TAP_TAPCELL_ROW_24_203
*1028 TAP_TAPCELL_ROW_24_204
*1029 TAP_TAPCELL_ROW_24_205
*1030 TAP_TAPCELL_ROW_24_206
*1031 TAP_TAPCELL_ROW_24_207
*1032 TAP_TAPCELL_ROW_25_208
*1033 TAP_TAPCELL_ROW_25_209
*1034 TAP_TAPCELL_ROW_25_210
*1035 TAP_TAPCELL_ROW_25_211
*1036 TAP_TAPCELL_ROW_26_212
*1037 TAP_TAPCELL_ROW_26_213
*1038 TAP_TAPCELL_ROW_26_214
*1039 TAP_TAPCELL_ROW_26_215
*1040 TAP_TAPCELL_ROW_26_216
*1041 TAP_TAPCELL_ROW_27_217
*1042 TAP_TAPCELL_ROW_27_218
*1043 TAP_TAPCELL_ROW_27_219
*1044 TAP_TAPCELL_ROW_27_220
*1045 TAP_TAPCELL_ROW_28_221
*1046 TAP_TAPCELL_ROW_28_222
*1047 TAP_TAPCELL_ROW_28_223
*1048 TAP_TAPCELL_ROW_28_224
*1049 TAP_TAPCELL_ROW_28_225
*1050 TAP_TAPCELL_ROW_29_226
*1051 TAP_TAPCELL_ROW_29_227
*1052 TAP_TAPCELL_ROW_29_228
*1053 TAP_TAPCELL_ROW_29_229
*1054 TAP_TAPCELL_ROW_2_104
*1055 TAP_TAPCELL_ROW_2_105
*1056 TAP_TAPCELL_ROW_2_106
*1057 TAP_TAPCELL_ROW_2_107
*1058 TAP_TAPCELL_ROW_2_108
*1059 TAP_TAPCELL_ROW_30_230
*1060 TAP_TAPCELL_ROW_30_231
*1061 TAP_TAPCELL_ROW_30_232
*1062 TAP_TAPCELL_ROW_30_233
*1063 TAP_TAPCELL_ROW_30_234
*1064 TAP_TAPCELL_ROW_31_235
*1065 TAP_TAPCELL_ROW_31_236
*1066 TAP_TAPCELL_ROW_31_237
*1067 TAP_TAPCELL_ROW_31_238
*1068 TAP_TAPCELL_ROW_32_239
*1069 TAP_TAPCELL_ROW_32_240
*1070 TAP_TAPCELL_ROW_32_241
*1071 TAP_TAPCELL_ROW_32_242
*1072 TAP_TAPCELL_ROW_32_243
*1073 TAP_TAPCELL_ROW_33_244
*1074 TAP_TAPCELL_ROW_33_245
*1075 TAP_TAPCELL_ROW_33_246
*1076 TAP_TAPCELL_ROW_33_247
*1077 TAP_TAPCELL_ROW_34_248
*1078 TAP_TAPCELL_ROW_34_249
*1079 TAP_TAPCELL_ROW_34_250
*1080 TAP_TAPCELL_ROW_34_251
*1081 TAP_TAPCELL_ROW_34_252
*1082 TAP_TAPCELL_ROW_35_253
*1083 TAP_TAPCELL_ROW_35_254
*1084 TAP_TAPCELL_ROW_35_255
*1085 TAP_TAPCELL_ROW_35_256
*1086 TAP_TAPCELL_ROW_36_257
*1087 TAP_TAPCELL_ROW_36_258
*1088 TAP_TAPCELL_ROW_36_259
*1089 TAP_TAPCELL_ROW_36_260
*1090 TAP_TAPCELL_ROW_36_261
*1091 TAP_TAPCELL_ROW_37_262
*1092 TAP_TAPCELL_ROW_37_263
*1093 TAP_TAPCELL_ROW_37_264
*1094 TAP_TAPCELL_ROW_37_265
*1095 TAP_TAPCELL_ROW_38_266
*1096 TAP_TAPCELL_ROW_38_267
*1097 TAP_TAPCELL_ROW_38_268
*1098 TAP_TAPCELL_ROW_38_269
*1099 TAP_TAPCELL_ROW_38_270
*1100 TAP_TAPCELL_ROW_39_271
*1101 TAP_TAPCELL_ROW_39_272
*1102 TAP_TAPCELL_ROW_39_273
*1103 TAP_TAPCELL_ROW_39_274
*1104 TAP_TAPCELL_ROW_3_109
*1105 TAP_TAPCELL_ROW_3_110
*1106 TAP_TAPCELL_ROW_3_111
*1107 TAP_TAPCELL_ROW_3_112
*1108 TAP_TAPCELL_ROW_40_275
*1109 TAP_TAPCELL_ROW_40_276
*1110 TAP_TAPCELL_ROW_40_277
*1111 TAP_TAPCELL_ROW_40_278
*1112 TAP_TAPCELL_ROW_40_279
*1113 TAP_TAPCELL_ROW_41_280
*1114 TAP_TAPCELL_ROW_41_281
*1115 TAP_TAPCELL_ROW_41_282
*1116 TAP_TAPCELL_ROW_41_283
*1117 TAP_TAPCELL_ROW_42_284
*1118 TAP_TAPCELL_ROW_42_285
*1119 TAP_TAPCELL_ROW_42_286
*1120 TAP_TAPCELL_ROW_42_287
*1121 TAP_TAPCELL_ROW_42_288
*1122 TAP_TAPCELL_ROW_43_289
*1123 TAP_TAPCELL_ROW_43_290
*1124 TAP_TAPCELL_ROW_43_291
*1125 TAP_TAPCELL_ROW_43_292
*1126 TAP_TAPCELL_ROW_44_293
*1127 TAP_TAPCELL_ROW_44_294
*1128 TAP_TAPCELL_ROW_44_295
*1129 TAP_TAPCELL_ROW_44_296
*1130 TAP_TAPCELL_ROW_44_297
*1131 TAP_TAPCELL_ROW_44_298
*1132 TAP_TAPCELL_ROW_44_299
*1133 TAP_TAPCELL_ROW_44_300
*1134 TAP_TAPCELL_ROW_44_301
*1135 TAP_TAPCELL_ROW_44_302
*1136 TAP_TAPCELL_ROW_4_113
*1137 TAP_TAPCELL_ROW_4_114
*1138 TAP_TAPCELL_ROW_4_115
*1139 TAP_TAPCELL_ROW_4_116
*1140 TAP_TAPCELL_ROW_4_117
*1141 TAP_TAPCELL_ROW_5_118
*1142 TAP_TAPCELL_ROW_5_119
*1143 TAP_TAPCELL_ROW_5_120
*1144 TAP_TAPCELL_ROW_5_121
*1145 TAP_TAPCELL_ROW_6_122
*1146 TAP_TAPCELL_ROW_6_123
*1147 TAP_TAPCELL_ROW_6_124
*1148 TAP_TAPCELL_ROW_6_125
*1149 TAP_TAPCELL_ROW_6_126
*1150 TAP_TAPCELL_ROW_7_127
*1151 TAP_TAPCELL_ROW_7_128
*1152 TAP_TAPCELL_ROW_7_129
*1153 TAP_TAPCELL_ROW_7_130
*1154 TAP_TAPCELL_ROW_8_131
*1155 TAP_TAPCELL_ROW_8_132
*1156 TAP_TAPCELL_ROW_8_133
*1157 TAP_TAPCELL_ROW_8_134
*1158 TAP_TAPCELL_ROW_8_135
*1159 TAP_TAPCELL_ROW_9_136
*1160 TAP_TAPCELL_ROW_9_137
*1161 TAP_TAPCELL_ROW_9_138
*1162 TAP_TAPCELL_ROW_9_139
*1163 _102_
*1164 _103_
*1165 _104_
*1166 _105_
*1167 _106_
*1168 _107_
*1169 _108_
*1170 _109_
*1171 _110_
*1172 _111_
*1173 _112_
*1174 _113_
*1175 _114_
*1176 _115_
*1177 _116_
*1178 _117_
*1179 _118_
*1180 _119_
*1181 _120_
*1182 _121_
*1183 _122_
*1184 _123_
*1185 _124_
*1186 _125_
*1187 _126_
*1188 _127_
*1189 _128_
*1190 _129_
*1191 _130_
*1192 _131_
*1193 _132_
*1194 _133_
*1195 _134_
*1196 _135_
*1197 _136_
*1198 _137_
*1199 _138_
*1200 _139_
*1201 _140_
*1202 _141_
*1203 _142_
*1204 _143_
*1205 _144_
*1206 _145_
*1207 _146_
*1208 _147_
*1209 _148_
*1210 _149_
*1211 _150_
*1212 _151_
*1213 _152_
*1214 _153_
*1215 _154_
*1216 _155_
*1217 _156_
*1218 _157_
*1219 _158_
*1220 _159_
*1221 _160_
*1222 _161_
*1223 _162_
*1224 _163_
*1225 _164_
*1226 _165_
*1227 _166_
*1228 _167_
*1229 _168_
*1230 _169_
*1231 _170_
*1232 _171_
*1233 _172_
*1234 _173_
*1235 _174_
*1236 _175_
*1237 _176_
*1238 _177_
*1239 _178_
*1240 _179_
*1241 _180_
*1242 _181_
*1243 _182_
*1244 _183_
*1245 _184_
*1246 _185_
*1247 _186_
*1248 _187_
*1249 _188_
*1250 _189_
*1251 _190_
*1252 _191_
*1253 _192_
*1254 _193_
*1255 _194_
*1256 _195_
*1257 _196_
*1258 _197_
*1259 _198_
*1260 _199_
*1261 _200_
*1262 _201_
*1263 _202_
*1264 _203_
*1265 _204_
*1266 _205_
*1267 _206_
*1268 _207_
*1269 _208_
*1270 _209_
*1271 _210_
*1272 _211_
*1273 _212_
*1274 _213_
*1275 _214_
*1276 _215_
*1277 _216_
*1278 _217_
*1279 _218_
*1280 _219_
*1281 _220_
*1282 _221_
*1283 _222_
*1284 _223_
*1285 _224_
*1286 _225_
*1287 _226_
*1288 _227_
*1289 _228_
*1290 _229_
*1291 _232_
*1292 _233_
*1293 clkbuf_0_clk
*1294 clkbuf_1_0__f_clk
*1295 clkbuf_1_1__f_clk
*1296 ita1_25
*1297 ita1_26
*1298 output1
*1299 output10
*1300 output11
*1301 output12
*1302 output13
*1303 output14
*1304 output15
*1305 output16
*1306 output17
*1307 output18
*1308 output19
*1309 output2
*1310 output20
*1311 output21
*1312 output22
*1313 output23
*1314 output24
*1315 output3
*1316 output4
*1317 output5
*1318 output6
*1319 output7
*1320 output8
*1321 output9

*PORTS
clk I
segm[0] O
segm[10] O
segm[11] O
segm[12] O
segm[13] O
segm[1] O
segm[2] O
segm[3] O
segm[4] O
segm[5] O
segm[6] O
segm[7] O
segm[8] O
segm[9] O
sel[0] O
sel[10] O
sel[11] O
sel[1] O
sel[2] O
sel[3] O
sel[4] O
sel[5] O
sel[6] O
sel[7] O
sel[8] O
sel[9] O

*D_NET *1 0.0107539
*CONN
*P clk I
*I *1293:I I *D gf180mcu_fd_sc_mcu7t5v0__clkbuf_16
*I *176:I I *D gf180mcu_fd_sc_mcu7t5v0__antenna
*CAP
1 clk 0.00449069
2 *1293:I 0.000351931
3 *176:I 0
4 *1:13 0.00484262
5 *1293:I *1168:A3 0.000367309
6 *1293:I *1177:I 0
7 *1293:I *1211:A1 8.55327e-05
8 *1293:I *1215:A2 0.000126947
9 *1293:I *88:10 0
10 *1293:I *96:29 3.73627e-05
11 *1293:I *97:10 0.000119528
12 *1293:I *136:32 0
13 *1:13 *1257:A1 4.37668e-05
14 *1:13 *1270:D 9.8127e-05
15 *1:13 *97:10 0.000190133
16 *1:13 *136:12 0
17 *1:13 *136:23 0
18 *1:13 *136:32 0
*RES
1 clk *1:13 39.438 
2 *1:13 *176:I 9 
3 *1:13 *1293:I 12.8 
*END

*D_NET *2 0.00148312
*CONN
*P segm[0] O
*I *1296:ZN O *D gf180mcu_fd_sc_mcu7t5v0__tiel
*CAP
1 segm[0] 0.000741562
2 *1296:ZN 0.000741562
*RES
1 *1296:ZN segm[0] 9.478 
*END

*D_NET *3 0.000751964
*CONN
*P segm[10] O
*I *1298:Z O *D gf180mcu_fd_sc_mcu7t5v0__buf_8
*CAP
1 segm[10] 0.000375982
2 *1298:Z 0.000375982
*RES
1 *1298:Z segm[10] 11.394 
*END

*D_NET *4 0.000738404
*CONN
*P segm[11] O
*I *1309:Z O *D gf180mcu_fd_sc_mcu7t5v0__buf_8
*CAP
1 segm[11] 0.000307053
2 *1309:Z 0.000307053
3 segm[11] sel[2] 5.73926e-05
4 segm[11] sel[5] 6.69047e-05
*RES
1 *1309:Z segm[11] 11.394 
*END

*D_NET *5 0.000875918
*CONN
*P segm[12] O
*I *1315:Z O *D gf180mcu_fd_sc_mcu7t5v0__buf_8
*CAP
1 segm[12] 0.000392663
2 *1315:Z 0.000392663
3 segm[12] segm[6] 9.05929e-05
*RES
1 *1315:Z segm[12] 11.698 
*END

*D_NET *6 0.00232491
*CONN
*P segm[13] O
*I *1316:Z O *D gf180mcu_fd_sc_mcu7t5v0__buf_8
*CAP
1 segm[13] 0.00109882
2 *1316:Z 0.00109882
3 segm[13] sel[0] 0
4 segm[13] sel[9] 0.000127271
*RES
1 *1316:Z segm[13] 21.214 
*END

*D_NET *7 0.00129682
*CONN
*P segm[1] O
*I *1317:Z O *D gf180mcu_fd_sc_mcu7t5v0__buf_8
*CAP
1 segm[1] 0.000578266
2 *1317:Z 0.000578266
3 segm[1] segm[4] 0.000140291
*RES
1 *1317:Z segm[1] 8.794 
*END

*D_NET *8 0.00215296
*CONN
*P segm[2] O
*I *1318:Z O *D gf180mcu_fd_sc_mcu7t5v0__buf_8
*CAP
1 segm[2] 0.000867746
2 *1318:Z 0.000867746
3 segm[2] segm[3] 0.000114586
4 segm[2] sel[0] 0.000163619
5 segm[2] *1302:I 0
6 segm[2] *1319:I 0.000139266
*RES
1 *1318:Z segm[2] 19.998 
*END

*D_NET *9 0.00120934
*CONN
*P segm[3] O
*I *1319:Z O *D gf180mcu_fd_sc_mcu7t5v0__buf_8
*CAP
1 segm[3] 0.000538731
2 *1319:Z 0.000538731
3 segm[3] *1319:I 1.72912e-05
4 segm[2] segm[3] 0.000114586
*RES
1 *1319:Z segm[3] 8.49 
*END

*D_NET *10 0.00212471
*CONN
*P segm[4] O
*I *1320:Z O *D gf180mcu_fd_sc_mcu7t5v0__buf_8
*CAP
1 segm[4] 0.000992211
2 *1320:Z 0.000992211
3 segm[1] segm[4] 0.000140291
*RES
1 *1320:Z segm[4] 20.454 
*END

*D_NET *11 0.0012207
*CONN
*P segm[5] O