*SPEF "ieee 1481-1999"
*DESIGN "ita12"
*DATE "11:11:11 Fri 11 11, 1111"
*VENDOR "OpenRCX"
*PROGRAM "Parallel Extraction"
*VERSION "1.0"
*DESIGN_FLOW "NAME_SCOPE LOCAL" "PIN_CAP NONE"
*DIVIDER /
*DELIMITER :
*BUS_DELIMITER []
*T_UNIT 1 NS
*C_UNIT 1 PF
*R_UNIT 1 OHM
*L_UNIT 1 HENRY

*NAME_MAP
*1 clk
*2 segm[0]
*3 segm[10]
*4 segm[11]
*5 segm[12]
*6 segm[13]
*7 segm[1]
*8 segm[2]
*9 segm[3]
*10 segm[4]
*11 segm[5]
*12 segm[6]
*13 segm[7]
*14 segm[8]
*15 segm[9]
*16 sel[0]
*17 sel[10]
*18 sel[11]
*19 sel[1]
*20 sel[2]
*21 sel[3]
*22 sel[4]
*23 sel[5]
*24 sel[6]
*25 sel[7]
*26 sel[8]
*27 sel[9]
*30 _000_
*31 _001_
*32 _002_
*33 _003_
*34 _004_
*35 _005_
*36 _006_
*37 _007_
*38 _008_
*39 _009_
*40 _010_
*41 _011_
*42 _012_
*43 _013_
*44 _014_
*45 _015_
*46 _016_
*47 _017_
*48 _018_
*49 _019_
*50 _020_
*51 _021_
*52 _022_
*53 _023_
*54 _024_
*55 _025_
*56 _026_
*57 _027_
*58 _028_
*59 _029_
*60 _030_
*61 _031_
*62 _032_
*63 _033_
*64 _034_
*65 _035_
*66 _036_
*67 _037_
*68 _038_
*69 _039_
*70 _040_
*71 _041_
*72 _042_
*73 _043_
*74 _044_
*75 _045_
*76 _046_
*77 _047_
*78 _048_
*79 _049_
*80 _050_
*81 _051_
*82 _052_
*83 _053_
*84 _054_
*85 _055_
*86 _056_
*87 _057_
*88 _058_
*89 _059_
*90 _060_
*91 _061_
*92 _062_
*93 _063_
*94 _064_
*95 _065_
*96 _066_
*97 _067_
*98 _068_
*99 _069_
*100 _070_
*101 _071_
*102 _072_
*103 _073_
*104 _074_
*105 _075_
*106 _076_
*107 _077_
*108 _078_
*109 _079_
*110 _080_
*111 _081_
*112 _082_
*113 _083_
*114 _084_
*115 _085_
*116 _086_
*117 _087_
*118 _088_
*119 _089_
*120 _090_
*121 _091_
*122 _092_
*123 _093_
*124 _094_
*125 _095_
*126 _096_
*127 _097_
*128 _098_
*129 _099_
*130 _100_
*131 _101_
*132 _102_
*133 _103_
*134 _104_
*135 _105_
*136 _106_
*137 _107_
*138 _108_
*139 _109_
*140 _110_
*141 _111_
*142 _112_
*143 _113_
*144 _114_
*145 clknet_0_clk
*146 clknet_1_0__leaf_clk
*147 clknet_1_1__leaf_clk
*148 dut12\.count\[0\]
*149 dut12\.count\[1\]
*150 dut12\.count\[2\]
*151 dut12\.count\[3\]
*152 net1
*153 net10
*154 net11
*155 net12
*156 net13
*157 net14
*158 net15
*159 net16
*160 net17
*161 net18
*162 net19
*163 net2
*164 net20
*165 net21
*166 net22
*167 net23
*168 net24
*169 net25
*170 net26
*171 net3
*172 net4
*173 net5
*174 net6
*175 net7
*176 net8
*177 net9
*178 ANTENNA__182__C
*179 ANTENNA__204__B
*180 ANTENNA__227__A3
*181 ANTENNA__230__CLK
*182 ANTENNA__231__CLK
*183 ANTENNA__232__CLK
*184 ANTENNA__233__CLK
*185 ANTENNA__234__CLK
*186 ANTENNA__235__CLK
*187 ANTENNA__236__CLK
*188 ANTENNA__237__CLK
*189 ANTENNA__238__CLK
*190 ANTENNA__239__CLK
*191 ANTENNA__240__CLK
*192 ANTENNA__241__CLK
*193 ANTENNA__242__CLK
*194 ANTENNA__243__CLK
*195 ANTENNA__244__CLK
*196 ANTENNA__245__CLK
*197 ANTENNA__246__CLK
*198 ANTENNA__247__CLK
*199 ANTENNA__248__CLK
*200 ANTENNA__249__CLK
*201 ANTENNA__250__CLK
*202 ANTENNA__251__CLK
*203 ANTENNA__252__CLK
*204 ANTENNA__253__CLK
*205 ANTENNA__254__CLK
*206 ANTENNA__255__CLK
*207 ANTENNA_clkbuf_0_clk_I
*208 FILLER_0_0_104
*209 FILLER_0_0_138
*210 FILLER_0_0_172
*211 FILLER_0_0_176
*212 FILLER_0_0_2
*213 FILLER_0_0_232
*214 FILLER_0_0_236
*215 FILLER_0_0_266
*216 FILLER_0_0_270
*217 FILLER_0_0_274
*218 FILLER_0_0_308
*219 FILLER_0_0_342
*220 FILLER_0_0_346
*221 FILLER_0_0_348
*222 FILLER_0_0_36
*223 FILLER_0_0_70
*224 FILLER_0_10_101
*225 FILLER_0_10_107
*226 FILLER_0_10_171
*227 FILLER_0_10_177
*228 FILLER_0_10_2
*229 FILLER_0_10_241
*230 FILLER_0_10_247
*231 FILLER_0_10_311
*232 FILLER_0_10_317
*233 FILLER_0_10_34
*234 FILLER_0_10_37
*235 FILLER_0_11_136
*236 FILLER_0_11_142
*237 FILLER_0_11_2
*238 FILLER_0_11_206
*239 FILLER_0_11_212
*240 FILLER_0_11_276
*241 FILLER_0_11_282
*242 FILLER_0_11_346
*243 FILLER_0_11_348
*244 FILLER_0_11_66
*245 FILLER_0_11_72
*246 FILLER_0_12_101
*247 FILLER_0_12_107
*248 FILLER_0_12_171
*249 FILLER_0_12_177
*250 FILLER_0_12_185
*251 FILLER_0_12_189
*252 FILLER_0_12_191
*253 FILLER_0_12_2
*254 FILLER_0_12_221
*255 FILLER_0_12_225
*256 FILLER_0_12_241
*257 FILLER_0_12_247
*258 FILLER_0_12_311
*259 FILLER_0_12_317
*260 FILLER_0_12_34
*261 FILLER_0_12_37
*262 FILLER_0_13_136
*263 FILLER_0_13_142
*264 FILLER_0_13_2
*265 FILLER_0_13_206
*266 FILLER_0_13_212
*267 FILLER_0_13_216
*268 FILLER_0_13_229
*269 FILLER_0_13_236
*270 FILLER_0_13_268
*271 FILLER_0_13_276
*272 FILLER_0_13_282
*273 FILLER_0_13_346
*274 FILLER_0_13_348
*275 FILLER_0_13_66
*276 FILLER_0_13_72
*277 FILLER_0_14_101
*278 FILLER_0_14_107
*279 FILLER_0_14_139
*280 FILLER_0_14_141
*281 FILLER_0_14_171
*282 FILLER_0_14_177
*283 FILLER_0_14_181
*284 FILLER_0_14_197
*285 FILLER_0_14_199
*286 FILLER_0_14_2
*287 FILLER_0_14_208
*288 FILLER_0_14_210
*289 FILLER_0_14_247
*290 FILLER_0_14_251
*291 FILLER_0_14_317
*292 FILLER_0_14_321
*293 FILLER_0_14_34
*294 FILLER_0_14_37
*295 FILLER_0_15_136
*296 FILLER_0_15_142
*297 FILLER_0_15_2
*298 FILLER_0_15_208
*299 FILLER_0_15_212
*300 FILLER_0_15_216
*301 FILLER_0_15_220
*302 FILLER_0_15_233
*303 FILLER_0_15_235
*304 FILLER_0_15_265
*305 FILLER_0_15_273
*306 FILLER_0_15_277
*307 FILLER_0_15_279
*308 FILLER_0_15_282
*309 FILLER_0_15_346
*310 FILLER_0_15_348
*311 FILLER_0_15_66
*312 FILLER_0_15_72
*313 FILLER_0_16_101
*314 FILLER_0_16_107
*315 FILLER_0_16_139
*316 FILLER_0_16_147
*317 FILLER_0_16_149
*318 FILLER_0_16_158
*319 FILLER_0_16_162
*320 FILLER_0_16_174
*321 FILLER_0_16_183
*322 FILLER_0_16_193
*323 FILLER_0_16_2
*324 FILLER_0_16_225
*325 FILLER_0_16_237
*326 FILLER_0_16_241
*327 FILLER_0_16_247
*328 FILLER_0_16_311
*329 FILLER_0_16_317
*330 FILLER_0_16_34
*331 FILLER_0_16_37
*332 FILLER_0_17_104
*333 FILLER_0_17_108
*334 FILLER_0_17_138
*335 FILLER_0_17_142
*336 FILLER_0_17_152
*337 FILLER_0_17_168
*338 FILLER_0_17_176
*339 FILLER_0_17_184
*340 FILLER_0_17_2
*341 FILLER_0_17_200
*342 FILLER_0_17_208
*343 FILLER_0_17_212
*344 FILLER_0_17_220
*345 FILLER_0_17_224
*346 FILLER_0_17_257
*347 FILLER_0_17_273
*348 FILLER_0_17_277
*349 FILLER_0_17_279
*350 FILLER_0_17_282
*351 FILLER_0_17_314
*352 FILLER_0_17_322
*353 FILLER_0_17_66
*354 FILLER_0_17_72
*355 FILLER_0_18_107
*356 FILLER_0_18_111
*357 FILLER_0_18_119
*358 FILLER_0_18_121
*359 FILLER_0_18_136
*360 FILLER_0_18_140
*361 FILLER_0_18_142
*362 FILLER_0_18_149
*363 FILLER_0_18_165
*364 FILLER_0_18_173
*365 FILLER_0_18_183
*366 FILLER_0_18_193
*367 FILLER_0_18_2
*368 FILLER_0_18_207
*369 FILLER_0_18_215
*370 FILLER_0_18_243
*371 FILLER_0_18_247
*372 FILLER_0_18_311
*373 FILLER_0_18_317
*374 FILLER_0_18_321
*375 FILLER_0_18_34
*376 FILLER_0_18_37
*377 FILLER_0_18_69
*378 FILLER_0_18_73
*379 FILLER_0_18_75
*380 FILLER_0_19_104
*381 FILLER_0_19_120
*382 FILLER_0_19_124
*383 FILLER_0_19_132
*384 FILLER_0_19_156
*385 FILLER_0_19_172
*386 FILLER_0_19_176
*387 FILLER_0_19_178
*388 FILLER_0_19_197
*389 FILLER_0_19_199
*390 FILLER_0_19_205
*391 FILLER_0_19_209
*392 FILLER_0_19_212
*393 FILLER_0_19_214
*394 FILLER_0_19_225
*395 FILLER_0_19_229
*396 FILLER_0_19_236
*397 FILLER_0_19_244
*398 FILLER_0_19_247
*399 FILLER_0_19_279
*400 FILLER_0_19_28
*401 FILLER_0_19_282
*402 FILLER_0_19_346
*403 FILLER_0_19_348
*404 FILLER_0_19_60
*405 FILLER_0_19_68
*406 FILLER_0_19_72
*407 FILLER_0_1_136
*408 FILLER_0_1_142
*409 FILLER_0_1_2
*410 FILLER_0_1_206
*411 FILLER_0_1_212
*412 FILLER_0_1_216
*413 FILLER_0_1_269
*414 FILLER_0_1_277
*415 FILLER_0_1_279
*416 FILLER_0_1_282
*417 FILLER_0_1_346
*418 FILLER_0_1_348
*419 FILLER_0_1_66
*420 FILLER_0_1_72
*421 FILLER_0_20_115
*422 FILLER_0_20_119
*423 FILLER_0_20_121
*424 FILLER_0_20_127
*425 FILLER_0_20_129
*426 FILLER_0_20_153
*427 FILLER_0_20_155
*428 FILLER_0_20_161
*429 FILLER_0_20_184
*430 FILLER_0_20_2
*431 FILLER_0_20_219
*432 FILLER_0_20_235
*433 FILLER_0_20_276
*434 FILLER_0_20_308
*435 FILLER_0_20_312
*436 FILLER_0_20_314
*437 FILLER_0_20_317
*438 FILLER_0_20_34
*439 FILLER_0_20_37
*440 FILLER_0_20_69
*441 FILLER_0_20_73
*442 FILLER_0_20_75
*443 FILLER_0_21_104
*444 FILLER_0_21_107
*445 FILLER_0_21_113
*446 FILLER_0_21_129
*447 FILLER_0_21_139
*448 FILLER_0_21_225
*449 FILLER_0_21_260
*450 FILLER_0_21_264
*451 FILLER_0_21_28
*452 FILLER_0_21_282
*453 FILLER_0_21_314
*454 FILLER_0_21_322
*455 FILLER_0_21_60
*456 FILLER_0_21_68
*457 FILLER_0_21_72
*458 FILLER_0_22_101
*459 FILLER_0_22_107
*460 FILLER_0_22_117
*461 FILLER_0_22_125
*462 FILLER_0_22_2
*463 FILLER_0_22_252
*464 FILLER_0_22_284
*465 FILLER_0_22_300
*466 FILLER_0_22_308
*467 FILLER_0_22_312
*468 FILLER_0_22_314
*469 FILLER_0_22_317
*470 FILLER_0_22_321
*471 FILLER_0_22_34
*472 FILLER_0_22_37
*473 FILLER_0_23_131
*474 FILLER_0_23_139
*475 FILLER_0_23_2
*476 FILLER_0_23_206
*477 FILLER_0_23_212
*478 FILLER_0_23_225
*479 FILLER_0_23_235
*480 FILLER_0_23_243
*481 FILLER_0_23_247
*482 FILLER_0_23_251
*483 FILLER_0_23_258
*484 FILLER_0_23_274
*485 FILLER_0_23_278
*486 FILLER_0_23_282
*487 FILLER_0_23_314
*488 FILLER_0_23_322
*489 FILLER_0_23_66
*490 FILLER_0_23_72
*491 FILLER_0_23_80
*492 FILLER_0_23_84
*493 FILLER_0_24_101
*494 FILLER_0_24_107
*495 FILLER_0_24_115
*496 FILLER_0_24_141
*497 FILLER_0_24_148
*498 FILLER_0_24_156
*499 FILLER_0_24_163
*500 FILLER_0_24_167
*501 FILLER_0_24_177
*502 FILLER_0_24_179
*503 FILLER_0_24_186
*504 FILLER_0_24_188
*505 FILLER_0_24_2
*506 FILLER_0_24_218
*507 FILLER_0_24_222
*508 FILLER_0_24_230
*509 FILLER_0_24_234
*510 FILLER_0_24_236
*511 FILLER_0_24_276
*512 FILLER_0_24_308
*513 FILLER_0_24_312
*514 FILLER_0_24_314
*515 FILLER_0_24_317
*516 FILLER_0_24_321
*517 FILLER_0_24_34
*518 FILLER_0_24_37
*519 FILLER_0_25_104
*520 FILLER_0_25_107
*521 FILLER_0_25_111
*522 FILLER_0_25_121
*523 FILLER_0_25_138
*524 FILLER_0_25_142
*525 FILLER_0_25_158
*526 FILLER_0_25_166
*527 FILLER_0_25_168
*528 FILLER_0_25_175
*529 FILLER_0_25_180
*530 FILLER_0_25_187
*531 FILLER_0_25_191
*532 FILLER_0_25_197
*533 FILLER_0_25_2
*534 FILLER_0_25_205
*535 FILLER_0_25_209
*536 FILLER_0_25_212
*537 FILLER_0_25_226
*538 FILLER_0_25_258
*539 FILLER_0_25_274
*540 FILLER_0_25_278
*541 FILLER_0_25_282
*542 FILLER_0_25_346
*543 FILLER_0_25_348
*544 FILLER_0_25_66
*545 FILLER_0_25_72
*546 FILLER_0_26_113
*547 FILLER_0_26_117
*548 FILLER_0_26_121
*549 FILLER_0_26_153
*550 FILLER_0_26_166
*551 FILLER_0_26_174
*552 FILLER_0_26_177
*553 FILLER_0_26_209
*554 FILLER_0_26_217
*555 FILLER_0_26_221
*556 FILLER_0_26_230
*557 FILLER_0_26_244
*558 FILLER_0_26_247
*559 FILLER_0_26_28
*560 FILLER_0_26_311
*561 FILLER_0_26_317
*562 FILLER_0_26_32
*563 FILLER_0_26_34
*564 FILLER_0_26_37
*565 FILLER_0_26_69
*566 FILLER_0_26_73
*567 FILLER_0_26_75
*568 FILLER_0_27_127
*569 FILLER_0_27_135
*570 FILLER_0_27_139
*571 FILLER_0_27_142
*572 FILLER_0_27_146
*573 FILLER_0_27_177
*574 FILLER_0_27_181
*575 FILLER_0_27_185
*576 FILLER_0_27_187
*577 FILLER_0_27_194
*578 FILLER_0_27_2
*579 FILLER_0_27_212
*580 FILLER_0_27_239
*581 FILLER_0_27_252
*582 FILLER_0_27_268
*583 FILLER_0_27_276
*584 FILLER_0_27_282
*585 FILLER_0_27_346
*586 FILLER_0_27_348
*587 FILLER_0_27_66
*588 FILLER_0_27_72
*589 FILLER_0_27_88
*590 FILLER_0_28_101
*591 FILLER_0_28_107
*592 FILLER_0_28_111
*593 FILLER_0_28_113
*594 FILLER_0_28_119
*595 FILLER_0_28_133
*596 FILLER_0_28_165
*597 FILLER_0_28_199
*598 FILLER_0_28_207
*599 FILLER_0_28_243
*600 FILLER_0_28_276
*601 FILLER_0_28_28
*602 FILLER_0_28_308
*603 FILLER_0_28_312
*604 FILLER_0_28_314
*605 FILLER_0_28_317
*606 FILLER_0_28_32
*607 FILLER_0_28_321
*608 FILLER_0_28_34
*609 FILLER_0_28_37
*610 FILLER_0_29_100
*611 FILLER_0_29_130
*612 FILLER_0_29_134
*613 FILLER_0_29_138
*614 FILLER_0_29_147
*615 FILLER_0_29_151
*616 FILLER_0_29_157
*617 FILLER_0_29_161
*618 FILLER_0_29_165
*619 FILLER_0_29_198
*620 FILLER_0_29_206
*621 FILLER_0_29_212
*622 FILLER_0_29_214
*623 FILLER_0_29_244
*624 FILLER_0_29_249
*625 FILLER_0_29_253
*626 FILLER_0_29_257
*627 FILLER_0_29_273
*628 FILLER_0_29_277
*629 FILLER_0_29_279
*630 FILLER_0_29_28
*631 FILLER_0_29_282
*632 FILLER_0_29_314
*633 FILLER_0_29_322
*634 FILLER_0_29_60
*635 FILLER_0_29_68
*636 FILLER_0_29_72
*637 FILLER_0_29_88
*638 FILLER_0_29_96
*639 FILLER_0_2_101
*640 FILLER_0_2_107
*641 FILLER_0_2_171
*642 FILLER_0_2_177
*643 FILLER_0_2_2
*644 FILLER_0_2_241
*645 FILLER_0_2_247
*646 FILLER_0_2_311
*647 FILLER_0_2_317
*648 FILLER_0_2_34
*649 FILLER_0_2_37
*650 FILLER_0_30_101
*651 FILLER_0_30_107
*652 FILLER_0_30_123
*653 FILLER_0_30_127
*654 FILLER_0_30_158
*655 FILLER_0_30_170
*656 FILLER_0_30_174
*657 FILLER_0_30_177
*658 FILLER_0_30_184
*659 FILLER_0_30_186
*660 FILLER_0_30_192
*661 FILLER_0_30_194
*662 FILLER_0_30_2
*663 FILLER_0_30_201
*664 FILLER_0_30_233
*665 FILLER_0_30_241
*666 FILLER_0_30_247
*667 FILLER_0_30_311
*668 FILLER_0_30_317
*669 FILLER_0_30_321
*670 FILLER_0_30_34
*671 FILLER_0_30_37
*672 FILLER_0_31_136
*673 FILLER_0_31_171
*674 FILLER_0_31_175
*675 FILLER_0_31_2
*676 FILLER_0_31_207
*677 FILLER_0_31_209
*678 FILLER_0_31_212
*679 FILLER_0_31_216
*680 FILLER_0_31_282
*681 FILLER_0_31_346
*682 FILLER_0_31_348
*683 FILLER_0_31_66
*684 FILLER_0_31_72
*685 FILLER_0_32_101
*686 FILLER_0_32_107
*687 FILLER_0_32_171
*688 FILLER_0_32_177
*689 FILLER_0_32_193
*690 FILLER_0_32_2
*691 FILLER_0_32_201
*692 FILLER_0_32_233
*693 FILLER_0_32_241
*694 FILLER_0_32_247
*695 FILLER_0_32_311
*696 FILLER_0_32_317
*697 FILLER_0_32_34
*698 FILLER_0_32_37
*699 FILLER_0_33_136
*700 FILLER_0_33_142
*701 FILLER_0_33_2
*702 FILLER_0_33_206
*703 FILLER_0_33_212
*704 FILLER_0_33_276
*705 FILLER_0_33_282
*706 FILLER_0_33_346
*707 FILLER_0_33_348
*708 FILLER_0_33_66
*709 FILLER_0_33_72
*710 FILLER_0_34_101
*711 FILLER_0_34_107
*712 FILLER_0_34_171
*713 FILLER_0_34_177
*714 FILLER_0_34_2
*715 FILLER_0_34_241
*716 FILLER_0_34_247
*717 FILLER_0_34_311
*718 FILLER_0_34_317
*719 FILLER_0_34_34
*720 FILLER_0_34_37
*721 FILLER_0_35_136
*722 FILLER_0_35_142
*723 FILLER_0_35_2
*724 FILLER_0_35_206
*725 FILLER_0_35_212
*726 FILLER_0_35_276
*727 FILLER_0_35_282
*728 FILLER_0_35_346
*729 FILLER_0_35_348
*730 FILLER_0_35_66
*731 FILLER_0_35_72
*732 FILLER_0_36_101
*733 FILLER_0_36_107
*734 FILLER_0_36_171
*735 FILLER_0_36_177
*736 FILLER_0_36_2
*737 FILLER_0_36_241
*738 FILLER_0_36_247
*739 FILLER_0_36_311
*740 FILLER_0_36_317
*741 FILLER_0_36_34
*742 FILLER_0_36_37
*743 FILLER_0_37_136
*744 FILLER_0_37_142
*745 FILLER_0_37_2
*746 FILLER_0_37_206
*747 FILLER_0_37_212
*748 FILLER_0_37_276
*749 FILLER_0_37_282
*750 FILLER_0_37_346
*751 FILLER_0_37_348
*752 FILLER_0_37_66
*753 FILLER_0_37_72
*754 FILLER_0_38_101
*755 FILLER_0_38_107
*756 FILLER_0_38_171
*757 FILLER_0_38_177
*758 FILLER_0_38_2
*759 FILLER_0_38_241
*760 FILLER_0_38_247
*761 FILLER_0_38_311
*762 FILLER_0_38_317
*763 FILLER_0_38_34
*764 FILLER_0_38_37
*765 FILLER_0_39_136
*766 FILLER_0_39_142
*767 FILLER_0_39_2
*768 FILLER_0_39_206
*769 FILLER_0_39_212
*770 FILLER_0_39_276
*771 FILLER_0_39_282
*772 FILLER_0_39_346
*773 FILLER_0_39_348
*774 FILLER_0_39_66
*775 FILLER_0_39_72
*776 FILLER_0_3_136
*777 FILLER_0_3_142
*778 FILLER_0_3_2
*779 FILLER_0_3_206
*780 FILLER_0_3_212
*781 FILLER_0_3_276
*782 FILLER_0_3_282
*783 FILLER_0_3_346
*784 FILLER_0_3_348
*785 FILLER_0_3_66
*786 FILLER_0_3_72
*787 FILLER_0_40_101
*788 FILLER_0_40_107
*789 FILLER_0_40_171
*790 FILLER_0_40_177
*791 FILLER_0_40_2
*792 FILLER_0_40_241
*793 FILLER_0_40_247
*794 FILLER_0_40_311
*795 FILLER_0_40_317
*796 FILLER_0_40_34
*797 FILLER_0_40_37
*798 FILLER_0_41_136
*799 FILLER_0_41_142
*800 FILLER_0_41_2
*801 FILLER_0_41_206
*802 FILLER_0_41_212
*803 FILLER_0_41_276
*804 FILLER_0_41_282
*805 FILLER_0_41_346
*806 FILLER_0_41_348
*807 FILLER_0_41_66
*808 FILLER_0_41_72
*809 FILLER_0_42_101
*810 FILLER_0_42_107
*811 FILLER_0_42_171
*812 FILLER_0_42_177
*813 FILLER_0_42_193
*814 FILLER_0_42_197
*815 FILLER_0_42_2
*816 FILLER_0_42_225
*817 FILLER_0_42_241
*818 FILLER_0_42_247
*819 FILLER_0_42_311
*820 FILLER_0_42_317
*821 FILLER_0_42_34
*822 FILLER_0_42_37
*823 FILLER_0_43_136
*824 FILLER_0_43_142
*825 FILLER_0_43_158
*826 FILLER_0_43_166
*827 FILLER_0_43_168
*828 FILLER_0_43_195
*829 FILLER_0_43_2
*830 FILLER_0_43_203
*831 FILLER_0_43_207
*832 FILLER_0_43_209
*833 FILLER_0_43_238
*834 FILLER_0_43_270
*835 FILLER_0_43_278
*836 FILLER_0_43_282
*837 FILLER_0_43_346
*838 FILLER_0_43_348
*839 FILLER_0_43_66
*840 FILLER_0_43_72
*841 FILLER_0_44_104
*842 FILLER_0_44_138
*843 FILLER_0_44_142
*844 FILLER_0_44_172
*845 FILLER_0_44_176
*846 FILLER_0_44_2
*847 FILLER_0_44_232
*848 FILLER_0_44_236
*849 FILLER_0_44_240
*850 FILLER_0_44_274
*851 FILLER_0_44_308
*852 FILLER_0_44_342
*853 FILLER_0_44_346
*854 FILLER_0_44_348
*855 FILLER_0_44_36
*856 FILLER_0_44_70
*857 FILLER_0_4_101
*858 FILLER_0_4_107
*859 FILLER_0_4_171
*860 FILLER_0_4_177
*861 FILLER_0_4_2
*862 FILLER_0_4_241
*863 FILLER_0_4_247
*864 FILLER_0_4_311
*865 FILLER_0_4_317
*866 FILLER_0_4_34
*867 FILLER_0_4_37
*868 FILLER_0_5_136
*869 FILLER_0_5_142
*870 FILLER_0_5_2
*871 FILLER_0_5_206
*872 FILLER_0_5_212
*873 FILLER_0_5_276
*874 FILLER_0_5_282
*875 FILLER_0_5_346
*876 FILLER_0_5_348
*877 FILLER_0_5_66
*878 FILLER_0_5_72
*879 FILLER_0_6_101
*880 FILLER_0_6_107
*881 FILLER_0_6_171
*882 FILLER_0_6_177
*883 FILLER_0_6_2
*884 FILLER_0_6_241
*885 FILLER_0_6_247
*886 FILLER_0_6_311
*887 FILLER_0_6_317
*888 FILLER_0_6_34
*889 FILLER_0_6_37
*890 FILLER_0_7_136
*891 FILLER_0_7_142
*892 FILLER_0_7_2
*893 FILLER_0_7_206
*894 FILLER_0_7_212
*895 FILLER_0_7_276
*896 FILLER_0_7_282
*897 FILLER_0_7_346
*898 FILLER_0_7_348
*899 FILLER_0_7_66
*900 FILLER_0_7_72
*901 FILLER_0_8_101
*902 FILLER_0_8_107
*903 FILLER_0_8_171
*904 FILLER_0_8_177
*905 FILLER_0_8_2
*906 FILLER_0_8_241
*907 FILLER_0_8_247
*908 FILLER_0_8_311
*909 FILLER_0_8_317
*910 FILLER_0_8_34
*911 FILLER_0_8_37
*912 FILLER_0_9_136
*913 FILLER_0_9_142
*914 FILLER_0_9_2
*915 FILLER_0_9_206
*916 FILLER_0_9_212
*917 FILLER_0_9_276
*918 FILLER_0_9_282
*919 FILLER_0_9_346
*920 FILLER_0_9_348
*921 FILLER_0_9_66
*922 FILLER_0_9_72
*923 PHY_EDGE_ROW_0_Left_45
*924 PHY_EDGE_ROW_0_Right_0
*925 PHY_EDGE_ROW_10_Left_55
*926 PHY_EDGE_ROW_10_Right_10
*927 PHY_EDGE_ROW_11_Left_56
*928 PHY_EDGE_ROW_11_Right_11
*929 PHY_EDGE_ROW_12_Left_57
*930 PHY_EDGE_ROW_12_Right_12
*931 PHY_EDGE_ROW_13_Left_58
*932 PHY_EDGE_ROW_13_Right_13
*933 PHY_EDGE_ROW_14_Left_59
*934 PHY_EDGE_ROW_14_Right_14
*935 PHY_EDGE_ROW_15_Left_60
*936 PHY_EDGE_ROW_15_Right_15
*937 PHY_EDGE_ROW_16_Left_61
*938 PHY_EDGE_ROW_16_Right_16
*939 PHY_EDGE_ROW_17_Left_62
*940 PHY_EDGE_ROW_17_Right_17
*941 PHY_EDGE_ROW_18_Left_63
*942 PHY_EDGE_ROW_18_Right_18
*943 PHY_EDGE_ROW_19_Left_64
*944 PHY_EDGE_ROW_19_Right_19
*945 PHY_EDGE_ROW_1_Left_46
*946 PHY_EDGE_ROW_1_Right_1
*947 PHY_EDGE_ROW_20_Left_65
*948 PHY_EDGE_ROW_20_Right_20
*949 PHY_EDGE_ROW_21_Left_66
*950 PHY_EDGE_ROW_21_Right_21
*951 PHY_EDGE_ROW_22_Left_67
*952 PHY_EDGE_ROW_22_Right_22
*953 PHY_EDGE_ROW_23_Left_68
*954 PHY_EDGE_ROW_23_Right_23
*955 PHY_EDGE_ROW_24_Left_69
*956 PHY_EDGE_ROW_24_Right_24
*957 PHY_EDGE_ROW_25_Left_70
*958 PHY_EDGE_ROW_25_Right_25
*959 PHY_EDGE_ROW_26_Left_71
*960 PHY_EDGE_ROW_26_Right_26
*961 PHY_EDGE_ROW_27_Left_72
*962 PHY_EDGE_ROW_27_Right_27
*963 PHY_EDGE_ROW_28_Left_73
*964 PHY_EDGE_ROW_28_Right_28
*965 PHY_EDGE_ROW_29_Left_74
*966 PHY_EDGE_ROW_29_Right_29
*967 PHY_EDGE_ROW_2_Left_47
*968 PHY_EDGE_ROW_2_Right_2
*969 PHY_EDGE_ROW_30_Left_75
*970 PHY_EDGE_ROW_30_Right_30
*971 PHY_EDGE_ROW_31_Left_76
*972 PHY_EDGE_ROW_31_Right_31
*973 PHY_EDGE_ROW_32_Left_77
*974 PHY_EDGE_ROW_32_Right_32
*975 PHY_EDGE_ROW_33_Left_78
*976 PHY_EDGE_ROW_33_Right_33
*977 PHY_EDGE_ROW_34_Left_79
*978 PHY_EDGE_ROW_34_Right_34
*979 PHY_EDGE_ROW_35_Left_80
*980 PHY_EDGE_ROW_35_Right_35
*981 PHY_EDGE_ROW_36_Left_81
*982 PHY_EDGE_ROW_36_Right_36
*983 PHY_EDGE_ROW_37_Left_82
*984 PHY_EDGE_ROW_37_Right_37
*985 PHY_EDGE_ROW_38_Left_83
*986 PHY_EDGE_ROW_38_Right_38
*987 PHY_EDGE_ROW_39_Left_84
*988 PHY_EDGE_ROW_39_Right_39
*989 PHY_EDGE_ROW_3_Left_48
*990 PHY_EDGE_ROW_3_Right_3
*991 PHY_EDGE_ROW_40_Left_85
*992 PHY_EDGE_ROW_40_Right_40
*993 PHY_EDGE_ROW_41_Left_86
*994 PHY_EDGE_ROW_41_Right_41
*995 PHY_EDGE_ROW_42_Left_87
*996 PHY_EDGE_ROW_42_Right_42
*997 PHY_EDGE_ROW_43_Left_88
*998 PHY_EDGE_ROW_43_Right_43
*999 PHY_EDGE_ROW_44_Left_89
*1000 PHY_EDGE_ROW_44_Right_44
*1001 PHY_EDGE_ROW_4_Left_49
*1002 PHY_EDGE_ROW_4_Right_4
*1003 PHY_EDGE_ROW_5_Left_50
*1004 PHY_EDGE_ROW_5_Right_5
*1005 PHY_EDGE_ROW_6_Left_51
*1006 PHY_EDGE_ROW_6_Right_6
*1007 PHY_EDGE_ROW_7_Left_52
*1008 PHY_EDGE_ROW_7_Right_7
*1009 PHY_EDGE_ROW_8_Left_53
*1010 PHY_EDGE_ROW_8_Right_8
*1011 PHY_EDGE_ROW_9_Left_54
*1012 PHY_EDGE_ROW_9_Right_9
*1013 TAP_TAPCELL_ROW_0_90
*1014 TAP_TAPCELL_ROW_0_91
*1015 TAP_TAPCELL_ROW_0_92
*1016 TAP_TAPCELL_ROW_0_93
*1017 TAP_TAPCELL_ROW_0_94
*1018 TAP_TAPCELL_ROW_0_95
*1019 TAP_TAPCELL_ROW_0_96
*1020 TAP_TAPCELL_ROW_0_97
*1021 TAP_TAPCELL_ROW_0_98
*1022 TAP_TAPCELL_ROW_0_99
*1023 TAP_TAPCELL_ROW_10_140
*1024 TAP_TAPCELL_ROW_10_141
*1025 TAP_TAPCELL_ROW_10_142
*1026 TAP_TAPCELL_ROW_10_143
*1027 TAP_TAPCELL_ROW_10_144
*1028 TAP_TAPCELL_ROW_11_145
*1029 TAP_TAPCELL_ROW_11_146
*1030 TAP_TAPCELL_ROW_11_147
*1031 TAP_TAPCELL_ROW_11_148
*1032 TAP_TAPCELL_ROW_12_149
*1033 TAP_TAPCELL_ROW_12_150
*1034 TAP_TAPCELL_ROW_12_151
*1035 TAP_TAPCELL_ROW_12_152
*1036 TAP_TAPCELL_ROW_12_153
*1037 TAP_TAPCELL_ROW_13_154
*1038 TAP_TAPCELL_ROW_13_155
*1039 TAP_TAPCELL_ROW_13_156
*1040 TAP_TAPCELL_ROW_13_157
*1041 TAP_TAPCELL_ROW_14_158
*1042 TAP_TAPCELL_ROW_14_159
*1043 TAP_TAPCELL_ROW_14_160
*1044 TAP_TAPCELL_ROW_14_161
*1045 TAP_TAPCELL_ROW_14_162
*1046 TAP_TAPCELL_ROW_15_163
*1047 TAP_TAPCELL_ROW_15_164
*1048 TAP_TAPCELL_ROW_15_165
*1049 TAP_TAPCELL_ROW_15_166
*1050 TAP_TAPCELL_ROW_16_167
*1051 TAP_TAPCELL_ROW_16_168
*1052 TAP_TAPCELL_ROW_16_169
*1053 TAP_TAPCELL_ROW_16_170
*1054 TAP_TAPCELL_ROW_16_171
*1055 TAP_TAPCELL_ROW_17_172
*1056 TAP_TAPCELL_ROW_17_173
*1057 TAP_TAPCELL_ROW_17_174
*1058 TAP_TAPCELL_ROW_17_175
*1059 TAP_TAPCELL_ROW_18_176
*1060 TAP_TAPCELL_ROW_18_177
*1061 TAP_TAPCELL_ROW_18_178
*1062 TAP_TAPCELL_ROW_18_179
*1063 TAP_TAPCELL_ROW_18_180
*1064 TAP_TAPCELL_ROW_19_181
*1065 TAP_TAPCELL_ROW_19_182
*1066 TAP_TAPCELL_ROW_19_183
*1067 TAP_TAPCELL_ROW_19_184
*1068 TAP_TAPCELL_ROW_1_100
*1069 TAP_TAPCELL_ROW_1_101
*1070 TAP_TAPCELL_ROW_1_102
*1071 TAP_TAPCELL_ROW_1_103
*1072 TAP_TAPCELL_ROW_20_185
*1073 TAP_TAPCELL_ROW_20_186
*1074 TAP_TAPCELL_ROW_20_187
*1075 TAP_TAPCELL_ROW_20_188
*1076 TAP_TAPCELL_ROW_20_189
*1077 TAP_TAPCELL_ROW_21_190
*1078 TAP_TAPCELL_ROW_21_191
*1079 TAP_TAPCELL_ROW_21_192
*1080 TAP_TAPCELL_ROW_21_193
*1081 TAP_TAPCELL_ROW_22_194
*1082 TAP_TAPCELL_ROW_22_195
*1083 TAP_TAPCELL_ROW_22_196
*1084 TAP_TAPCELL_ROW_22_197
*1085 TAP_TAPCELL_ROW_22_198
*1086 TAP_TAPCELL_ROW_23_199
*1087 TAP_TAPCELL_ROW_23_200
*1088 TAP_TAPCELL_ROW_23_201
*1089 TAP_TAPCELL_ROW_23_202
*1090 TAP_TAPCELL_ROW_24_203
*1091 TAP_TAPCELL_ROW_24_204
*1092 TAP_TAPCELL_ROW_24_205
*1093 TAP_TAPCELL_ROW_24_206
*1094 TAP_TAPCELL_ROW_24_207
*1095 TAP_TAPCELL_ROW_25_208
*1096 TAP_TAPCELL_ROW_25_209
*1097 TAP_TAPCELL_ROW_25_210
*1098 TAP_TAPCELL_ROW_25_211
*1099 TAP_TAPCELL_ROW_26_212
*1100 TAP_TAPCELL_ROW_26_213
*1101 TAP_TAPCELL_ROW_26_214
*1102 TAP_TAPCELL_ROW_26_215
*1103 TAP_TAPCELL_ROW_26_216
*1104 TAP_TAPCELL_ROW_27_217
*1105 TAP_TAPCELL_ROW_27_218
*1106 TAP_TAPCELL_ROW_27_219
*1107 TAP_TAPCELL_ROW_27_220
*1108 TAP_TAPCELL_ROW_28_221
*1109 TAP_TAPCELL_ROW_28_222
*1110 TAP_TAPCELL_ROW_28_223
*1111 TAP_TAPCELL_ROW_28_224
*1112 TAP_TAPCELL_ROW_28_225
*1113 TAP_TAPCELL_ROW_29_226
*1114 TAP_TAPCELL_ROW_29_227
*1115 TAP_TAPCELL_ROW_29_228
*1116 TAP_TAPCELL_ROW_29_229
*1117 TAP_TAPCELL_ROW_2_104
*1118 TAP_TAPCELL_ROW_2_105
*1119 TAP_TAPCELL_ROW_2_106
*1120 TAP_TAPCELL_ROW_2_107
*1121 TAP_TAPCELL_ROW_2_108
*1122 TAP_TAPCELL_ROW_30_230
*1123 TAP_TAPCELL_ROW_30_231
*1124 TAP_TAPCELL_ROW_30_232
*1125 TAP_TAPCELL_ROW_30_233
*1126 TAP_TAPCELL_ROW_30_234
*1127 TAP_TAPCELL_ROW_31_235
*1128 TAP_TAPCELL_ROW_31_236
*1129 TAP_TAPCELL_ROW_31_237
*1130 TAP_TAPCELL_ROW_31_238
*1131 TAP_TAPCELL_ROW_32_239
*1132 TAP_TAPCELL_ROW_32_240
*1133 TAP_TAPCELL_ROW_32_241
*1134 TAP_TAPCELL_ROW_32_242
*1135 TAP_TAPCELL_ROW_32_243
*1136 TAP_TAPCELL_ROW_33_244
*1137 TAP_TAPCELL_ROW_33_245
*1138 TAP_TAPCELL_ROW_33_246
*1139 TAP_TAPCELL_ROW_33_247
*1140 TAP_TAPCELL_ROW_34_248
*1141 TAP_TAPCELL_ROW_34_249
*1142 TAP_TAPCELL_ROW_34_250
*1143 TAP_TAPCELL_ROW_34_251
*1144 TAP_TAPCELL_ROW_34_252
*1145 TAP_TAPCELL_ROW_35_253
*1146 TAP_TAPCELL_ROW_35_254
*1147 TAP_TAPCELL_ROW_35_255
*1148 TAP_TAPCELL_ROW_35_256
*1149 TAP_TAPCELL_ROW_36_257
*1150 TAP_TAPCELL_ROW_36_258
*1151 TAP_TAPCELL_ROW_36_259
*1152 TAP_TAPCELL_ROW_36_260
*1153 TAP_TAPCELL_ROW_36_261
*1154 TAP_TAPCELL_ROW_37_262
*1155 TAP_TAPCELL_ROW_37_263
*1156 TAP_TAPCELL_ROW_37_264
*1157 TAP_TAPCELL_ROW_37_265
*1158 TAP_TAPCELL_ROW_38_266
*1159 TAP_TAPCELL_ROW_38_267
*1160 TAP_TAPCELL_ROW_38_268
*1161 TAP_TAPCELL_ROW_38_269
*1162 TAP_TAPCELL_ROW_38_270
*1163 TAP_TAPCELL_ROW_39_271
*1164 TAP_TAPCELL_ROW_39_272
*1165 TAP_TAPCELL_ROW_39_273
*1166 TAP_TAPCELL_ROW_39_274
*1167 TAP_TAPCELL_ROW_3_109
*1168 TAP_TAPCELL_ROW_3_110
*1169 TAP_TAPCELL_ROW_3_111
*1170 TAP_TAPCELL_ROW_3_112
*1171 TAP_TAPCELL_ROW_40_275
*1172 TAP_TAPCELL_ROW_40_276
*1173 TAP_TAPCELL_ROW_40_277
*1174 TAP_TAPCELL_ROW_40_278
*1175 TAP_TAPCELL_ROW_40_279
*1176 TAP_TAPCELL_ROW_41_280
*1177 TAP_TAPCELL_ROW_41_281
*1178 TAP_TAPCELL_ROW_41_282
*1179 TAP_TAPCELL_ROW_41_283
*1180 TAP_TAPCELL_ROW_42_284
*1181 TAP_TAPCELL_ROW_42_285
*1182 TAP_TAPCELL_ROW_42_286
*1183 TAP_TAPCELL_ROW_42_287
*1184 TAP_TAPCELL_ROW_42_288
*1185 TAP_TAPCELL_ROW_43_289
*1186 TAP_TAPCELL_ROW_43_290
*1187 TAP_TAPCELL_ROW_43_291
*1188 TAP_TAPCELL_ROW_43_292
*1189 TAP_TAPCELL_ROW_44_293
*1190 TAP_TAPCELL_ROW_44_294
*1191 TAP_TAPCELL_ROW_44_295
*1192 TAP_TAPCELL_ROW_44_296
*1193 TAP_TAPCELL_ROW_44_297
*1194 TAP_TAPCELL_ROW_44_298
*1195 TAP_TAPCELL_ROW_44_299
*1196 TAP_TAPCELL_ROW_44_300
*1197 TAP_TAPCELL_ROW_44_301
*1198 TAP_TAPCELL_ROW_44_302
*1199 TAP_TAPCELL_ROW_4_113
*1200 TAP_TAPCELL_ROW_4_114
*1201 TAP_TAPCELL_ROW_4_115
*1202 TAP_TAPCELL_ROW_4_116
*1203 TAP_TAPCELL_ROW_4_117
*1204 TAP_TAPCELL_ROW_5_118
*1205 TAP_TAPCELL_ROW_5_119
*1206 TAP_TAPCELL_ROW_5_120
*1207 TAP_TAPCELL_ROW_5_121
*1208 TAP_TAPCELL_ROW_6_122
*1209 TAP_TAPCELL_ROW_6_123
*1210 TAP_TAPCELL_ROW_6_124
*1211 TAP_TAPCELL_ROW_6_125
*1212 TAP_TAPCELL_ROW_6_126
*1213 TAP_TAPCELL_ROW_7_127
*1214 TAP_TAPCELL_ROW_7_128
*1215 TAP_TAPCELL_ROW_7_129
*1216 TAP_TAPCELL_ROW_7_130
*1217 TAP_TAPCELL_ROW_8_131
*1218 TAP_TAPCELL_ROW_8_132
*1219 TAP_TAPCELL_ROW_8_133
*1220 TAP_TAPCELL_ROW_8_134
*1221 TAP_TAPCELL_ROW_8_135
*1222 TAP_TAPCELL_ROW_9_136
*1223 TAP_TAPCELL_ROW_9_137
*1224 TAP_TAPCELL_ROW_9_138
*1225 TAP_TAPCELL_ROW_9_139
*1226 _115_
*1227 _116_
*1228 _117_
*1229 _118_
*1230 _119_
*1231 _120_
*1232 _121_
*1233 _122_
*1234 _123_
*1235 _124_
*1236 _125_
*1237 _126_
*1238 _127_
*1239 _128_
*1240 _129_
*1241 _130_
*1242 _131_
*1243 _132_
*1244 _133_
*1245 _134_
*1246 _135_
*1247 _136_
*1248 _137_
*1249 _138_
*1250 _139_
*1251 _140_
*1252 _141_
*1253 _142_
*1254 _143_
*1255 _144_
*1256 _145_
*1257 _146_
*1258 _147_
*1259 _148_
*1260 _149_
*1261 _150_
*1262 _151_
*1263 _152_
*1264 _153_
*1265 _154_
*1266 _155_
*1267 _156_
*1268 _157_
*1269 _158_
*1270 _159_
*1271 _160_
*1272 _161_
*1273 _162_
*1274 _163_
*1275 _164_
*1276 _165_
*1277 _166_
*1278 _167_
*1279 _168_
*1280 _169_
*1281 _170_
*1282 _171_
*1283 _172_
*1284 _173_
*1285 _174_
*1286 _175_
*1287 _176_
*1288 _177_
*1289 _178_
*1290 _179_
*1291 _180_
*1292 _181_
*1293 _182_
*1294 _183_
*1295 _184_
*1296 _185_
*1297 _186_
*1298 _187_
*1299 _188_
*1300 _189_
*1301 _190_
*1302 _191_
*1303 _192_
*1304 _193_
*1305 _194_
*1306 _195_
*1307 _196_
*1308 _197_
*1309 _198_
*1310 _199_
*1311 _200_
*1312 _201_
*1313 _202_
*1314 _203_
*1315 _204_
*1316 _205_
*1317 _206_
*1318 _207_
*1319 _208_
*1320 _209_
*1321 _210_
*1322 _211_
*1323 _212_
*1324 _213_
*1325 _214_
*1326 _215_
*1327 _216_
*1328 _217_
*1329 _218_
*1330 _219_
*1331 _220_
*1332 _221_
*1333 _222_
*1334 _223_
*1335 _224_
*1336 _225_
*1337 _226_
*1338 _227_
*1339 _228_
*1340 _229_
*1341 _230_
*1342 _231_
*1343 _232_
*1344 _233_
*1345 _234_
*1346 _235_
*1347 _236_
*1348 _237_
*1349 _238_
*1350 _239_
*1351 _240_
*1352 _241_
*1353 _242_
*1354 _243_
*1355 _244_
*1356 _245_
*1357 _246_
*1358 _247_
*1359 _248_
*1360 _249_
*1361 _250_
*1362 _251_
*1363 _252_
*1364 _253_
*1365 _254_
*1366 _255_
*1367 _256_
*1368 _257_
*1369 _258_
*1370 _259_
*1371 clkbuf_0_clk
*1372 clkbuf_1_0__f_clk
*1373 clkbuf_1_1__f_clk
*1374 output1
*1375 output10
*1376 output11
*1377 output12
*1378 output13
*1379 output14
*1380 output15
*1381 output16
*1382 output17
*1383 output18
*1384 output19
*1385 output2
*1386 output20
*1387 output21
*1388 output22
*1389 output23
*1390 output24
*1391 output25
*1392 output26
*1393 output3
*1394 output4
*1395 output5
*1396 output6
*1397 output7
*1398 output8
*1399 output9

*PORTS
clk I
segm[0] O
segm[10] O
segm[11] O
segm[12] O
segm[13] O
segm[1] O
segm[2] O
segm[3] O
segm[4] O
segm[5] O
segm[6] O
segm[7] O
segm[8] O
segm[9] O
sel[0] O
sel[10] O
sel[11] O
sel[1] O
sel[2] O
sel[3] O
sel[4] O
sel[5] O
sel[6] O
sel[7] O
sel[8] O
sel[9] O

*D_NET *1 0.0183066
*CONN
*P clk I
*I *1371:I I *D gf180mcu_fd_sc_mcu7t5v0__clkbuf_16
*I *207:I I *D gf180mcu_fd_sc_mcu7t5v0__antenna
*CAP
1 clk 0.00304908
2 *1371:I 0.000253929
3 *207:I 0
4 *1:15 0.00242479
5 *1:11 0.00521993
6 *1371:I *1275:A1 7.45346e-05
7 *1371:I *1275:A2 0.000103788
8 *1371:I *1276:A2 1.00283e-05
9 *1371:I *1301:A1 0.000193354
10 *1:11 *1397:I 0.000203739
11 *1:15 *1266:A2 0.000274752
12 *1:15 *1270:I 0
13 *1:15 *1275:A2 9.96253e-05
14 *1:15 *1288:A1 0
15 *1:15 *1290:A1 0.00185219
16 *1:15 *1291:I 0.000148775
17 *1:15 *1293:A2 2.64624e-05
18 *1:15 *1293:C 0.000114571
19 *1:15 *1301:A2 0.00134939
20 *1:15 *1305:A2 0.000185835
21 *1:15 *1352:D 0.00110406
22 *1:15 *1353:D 0.000194998
23 *1:15 *1380:I 0.000576643
24 *1:15 *1383:I 0
25 *1:15 *70:32 0
26 *1:15 *114:14 0.000730725
27 *1:15 *137:10 0.000115388
*RES
1 clk *1:11 31.62 
2 *1:11 *1:15 33.516 
3 *1:15 *207:I 4.5 
4 *1:15 *1371:I 6.476 
*END

*D_NET *2 0.00307871
*CONN
*P segm[0] O
*I *1374:Z O *D gf180mcu_fd_sc_mcu7t5v0__buf_8
*CAP
1 segm[0] 0.00120452
2 *1374:Z 0.00120452
3 segm[0] segm[11] 0
4 segm[0] sel[8] 0.000147058
5 segm[0] *1393:I 9.41125e-05