*SPEF "ieee 1481-1999"
*DESIGN "ita10"
*DATE "11:11:11 Fri 11 11, 1111"
*VENDOR "OpenRCX"
*PROGRAM "Parallel Extraction"
*VERSION "1.0"
*DESIGN_FLOW "NAME_SCOPE LOCAL" "PIN_CAP NONE"
*DIVIDER /
*DELIMITER :
*BUS_DELIMITER []
*T_UNIT 1 NS
*C_UNIT 1 PF
*R_UNIT 1 OHM
*L_UNIT 1 HENRY

*NAME_MAP
*1 clk
*2 net25
*3 segm[10]
*4 segm[11]
*5 segm[12]
*6 segm[13]
*7 segm[1]
*8 segm[2]
*9 net26
*10 segm[4]
*11 segm[5]
*12 segm[6]
*13 segm[7]
*14 segm[8]
*15 segm[9]
*16 sel[0]
*17 sel[10]
*18 sel[11]
*19 sel[1]
*20 sel[2]
*21 sel[3]
*22 sel[4]
*23 sel[5]
*24 sel[6]
*25 sel[7]
*26 sel[8]
*27 sel[9]
*30 _000_
*31 _001_
*32 _002_
*33 _003_
*34 _004_
*35 _005_
*36 _006_
*37 _007_
*38 _008_
*39 _009_
*40 _010_
*41 _011_
*42 _012_
*43 _013_
*44 _014_
*45 _015_
*46 _016_
*47 _017_
*48 _018_
*49 _019_
*50 _020_
*51 _021_
*52 _022_
*53 _023_
*54 _024_
*55 _025_
*56 _026_
*57 _027_
*58 _028_
*59 _029_
*60 _030_
*61 _031_
*62 _032_
*63 _033_
*64 _034_
*65 _035_
*66 _036_
*67 _037_
*68 _038_
*69 _039_
*70 _040_
*71 _041_
*72 _042_
*73 _043_
*74 _044_
*75 _045_
*76 _046_
*77 _047_
*78 _048_
*79 _049_
*80 _050_
*81 _051_
*82 _052_
*83 _053_
*84 _054_
*85 _055_
*86 _056_
*87 _057_
*88 _058_
*89 _059_
*90 _060_
*91 _061_
*92 _062_
*93 _063_
*94 _064_
*95 _065_
*96 _066_
*97 _067_
*98 _068_
*99 _069_
*100 _070_
*101 _071_
*102 _072_
*103 _073_
*104 _074_
*105 _075_
*106 _076_
*107 _077_
*108 _078_
*109 _079_
*110 _080_
*111 _081_
*112 _082_
*113 _083_
*114 _084_
*115 _085_
*116 _086_
*117 _087_
*118 _088_
*119 _089_
*120 _090_
*121 _091_
*122 _092_
*123 _093_
*124 _094_
*125 _095_
*126 _096_
*127 _097_
*128 _098_
*129 _099_
*130 _100_
*131 _101_
*132 _102_
*133 _103_
*134 _104_
*135 _105_
*136 _106_
*137 _107_
*138 _108_
*139 _109_
*140 clknet_0_clk
*141 clknet_1_0__leaf_clk
*142 clknet_1_1__leaf_clk
*143 dut10\.count\[0\]
*144 dut10\.count\[1\]
*145 dut10\.count\[2\]
*146 dut10\.count\[3\]
*147 net1
*148 net10
*149 net11
*150 net12
*151 net13
*152 net14
*153 net15
*154 net16
*155 net17
*156 net18
*157 net19
*158 net2
*159 net20
*160 net21
*161 net22
*162 net23
*163 net24
*164 net3
*165 net4
*166 net5
*167 net6
*168 net7
*169 net8
*170 net9
*171 ANTENNA__220__CLK
*172 ANTENNA__221__CLK
*173 ANTENNA__222__CLK
*174 ANTENNA__223__CLK
*175 ANTENNA__224__CLK
*176 ANTENNA__225__CLK
*177 ANTENNA__226__CLK
*178 ANTENNA__227__CLK
*179 ANTENNA__228__CLK
*180 ANTENNA__229__CLK
*181 ANTENNA__230__CLK
*182 ANTENNA__231__CLK
*183 ANTENNA__232__CLK
*184 ANTENNA__233__CLK
*185 ANTENNA__234__CLK
*186 ANTENNA__235__CLK
*187 ANTENNA__236__CLK
*188 ANTENNA__237__CLK
*189 ANTENNA__238__CLK
*190 ANTENNA__239__CLK
*191 ANTENNA__240__CLK
*192 ANTENNA__241__CLK
*193 ANTENNA__242__CLK
*194 ANTENNA__243__CLK
*195 ANTENNA__244__CLK
*196 ANTENNA_clkbuf_0_clk_I
*197 FILLER_0_0_104
*198 FILLER_0_0_138
*199 FILLER_0_0_142
*200 FILLER_0_0_172
*201 FILLER_0_0_176
*202 FILLER_0_0_2
*203 FILLER_0_0_232
*204 FILLER_0_0_236
*205 FILLER_0_0_240
*206 FILLER_0_0_274
*207 FILLER_0_0_308
*208 FILLER_0_0_342
*209 FILLER_0_0_346
*210 FILLER_0_0_348
*211 FILLER_0_0_36
*212 FILLER_0_0_70
*213 FILLER_0_10_101
*214 FILLER_0_10_107
*215 FILLER_0_10_171
*216 FILLER_0_10_177
*217 FILLER_0_10_2
*218 FILLER_0_10_241
*219 FILLER_0_10_247
*220 FILLER_0_10_311
*221 FILLER_0_10_317
*222 FILLER_0_10_34
*223 FILLER_0_10_37
*224 FILLER_0_11_136
*225 FILLER_0_11_142
*226 FILLER_0_11_2
*227 FILLER_0_11_206
*228 FILLER_0_11_212
*229 FILLER_0_11_276
*230 FILLER_0_11_282
*231 FILLER_0_11_346
*232 FILLER_0_11_348
*233 FILLER_0_11_66
*234 FILLER_0_11_72
*235 FILLER_0_12_101
*236 FILLER_0_12_107
*237 FILLER_0_12_139
*238 FILLER_0_12_143
*239 FILLER_0_12_145
*240 FILLER_0_12_177
*241 FILLER_0_12_181
*242 FILLER_0_12_189
*243 FILLER_0_12_199
*244 FILLER_0_12_2
*245 FILLER_0_12_203
*246 FILLER_0_12_206
*247 FILLER_0_12_238
*248 FILLER_0_12_242
*249 FILLER_0_12_244
*250 FILLER_0_12_247
*251 FILLER_0_12_311
*252 FILLER_0_12_317
*253 FILLER_0_12_34
*254 FILLER_0_12_37
*255 FILLER_0_13_136
*256 FILLER_0_13_142
*257 FILLER_0_13_158
*258 FILLER_0_13_2
*259 FILLER_0_13_212
*260 FILLER_0_13_276
*261 FILLER_0_13_282
*262 FILLER_0_13_346
*263 FILLER_0_13_348
*264 FILLER_0_13_66
*265 FILLER_0_13_72
*266 FILLER_0_14_101
*267 FILLER_0_14_107
*268 FILLER_0_14_123
*269 FILLER_0_14_131
*270 FILLER_0_14_165
*271 FILLER_0_14_185
*272 FILLER_0_14_189
*273 FILLER_0_14_191
*274 FILLER_0_14_2
*275 FILLER_0_14_221
*276 FILLER_0_14_225
*277 FILLER_0_14_241
*278 FILLER_0_14_247
*279 FILLER_0_14_311
*280 FILLER_0_14_317
*281 FILLER_0_14_34
*282 FILLER_0_14_37
*283 FILLER_0_15_136
*284 FILLER_0_15_142
*285 FILLER_0_15_150
*286 FILLER_0_15_154
*287 FILLER_0_15_156
*288 FILLER_0_15_167
*289 FILLER_0_15_183
*290 FILLER_0_15_199
*291 FILLER_0_15_2
*292 FILLER_0_15_207
*293 FILLER_0_15_209
*294 FILLER_0_15_212
*295 FILLER_0_15_276
*296 FILLER_0_15_282
*297 FILLER_0_15_346
*298 FILLER_0_15_348
*299 FILLER_0_15_66
*300 FILLER_0_15_72
*301 FILLER_0_16_101
*302 FILLER_0_16_107
*303 FILLER_0_16_115
*304 FILLER_0_16_146
*305 FILLER_0_16_150
*306 FILLER_0_16_158
*307 FILLER_0_16_168
*308 FILLER_0_16_172
*309 FILLER_0_16_174
*310 FILLER_0_16_177
*311 FILLER_0_16_185
*312 FILLER_0_16_189
*313 FILLER_0_16_2
*314 FILLER_0_16_202
*315 FILLER_0_16_210
*316 FILLER_0_16_242
*317 FILLER_0_16_244
*318 FILLER_0_16_247
*319 FILLER_0_16_311
*320 FILLER_0_16_317
*321 FILLER_0_16_34
*322 FILLER_0_16_37
*323 FILLER_0_17_104
*324 FILLER_0_17_108
*325 FILLER_0_17_138
*326 FILLER_0_17_142
*327 FILLER_0_17_144
*328 FILLER_0_17_150
*329 FILLER_0_17_154
*330 FILLER_0_17_164
*331 FILLER_0_17_168
*332 FILLER_0_17_175
*333 FILLER_0_17_183
*334 FILLER_0_17_187
*335 FILLER_0_17_189
*336 FILLER_0_17_196
*337 FILLER_0_17_2
*338 FILLER_0_17_200
*339 FILLER_0_17_202
*340 FILLER_0_17_241
*341 FILLER_0_17_245
*342 FILLER_0_17_277
*343 FILLER_0_17_279
*344 FILLER_0_17_282
*345 FILLER_0_17_346
*346 FILLER_0_17_348
*347 FILLER_0_17_66
*348 FILLER_0_17_72
*349 FILLER_0_18_101
*350 FILLER_0_18_107
*351 FILLER_0_18_123
*352 FILLER_0_18_131
*353 FILLER_0_18_135
*354 FILLER_0_18_137
*355 FILLER_0_18_140
*356 FILLER_0_18_148
*357 FILLER_0_18_185
*358 FILLER_0_18_189
*359 FILLER_0_18_197
*360 FILLER_0_18_2
*361 FILLER_0_18_221
*362 FILLER_0_18_229
*363 FILLER_0_18_241
*364 FILLER_0_18_247
*365 FILLER_0_18_311
*366 FILLER_0_18_317
*367 FILLER_0_18_321
*368 FILLER_0_18_34
*369 FILLER_0_18_37
*370 FILLER_0_19_109
*371 FILLER_0_19_125
*372 FILLER_0_19_142
*373 FILLER_0_19_162
*374 FILLER_0_19_172
*375 FILLER_0_19_176
*376 FILLER_0_19_191
*377 FILLER_0_19_2
*378 FILLER_0_19_203
*379 FILLER_0_19_207
*380 FILLER_0_19_209
*381 FILLER_0_19_212
*382 FILLER_0_19_214
*383 FILLER_0_19_220
*384 FILLER_0_19_264
*385 FILLER_0_19_282
*386 FILLER_0_19_314
*387 FILLER_0_19_322
*388 FILLER_0_19_66
*389 FILLER_0_19_72
*390 FILLER_0_1_136
*391 FILLER_0_1_142
*392 FILLER_0_1_144
*393 FILLER_0_1_171
*394 FILLER_0_1_2
*395 FILLER_0_1_201
*396 FILLER_0_1_209
*397 FILLER_0_1_238
*398 FILLER_0_1_270
*399 FILLER_0_1_278
*400 FILLER_0_1_282
*401 FILLER_0_1_346
*402 FILLER_0_1_348
*403 FILLER_0_1_66
*404 FILLER_0_1_72
*405 FILLER_0_20_125
*406 FILLER_0_20_127
*407 FILLER_0_20_134
*408 FILLER_0_20_139
*409 FILLER_0_20_147
*410 FILLER_0_20_174
*411 FILLER_0_20_2
*412 FILLER_0_20_247
*413 FILLER_0_20_311
*414 FILLER_0_20_317
*415 FILLER_0_20_321
*416 FILLER_0_20_34
*417 FILLER_0_20_37
*418 FILLER_0_20_69
*419 FILLER_0_20_73
*420 FILLER_0_20_75
*421 FILLER_0_21_104
*422 FILLER_0_21_107
*423 FILLER_0_21_111
*424 FILLER_0_21_113
*425 FILLER_0_21_128
*426 FILLER_0_21_136
*427 FILLER_0_21_142
*428 FILLER_0_21_144
*429 FILLER_0_21_2
*430 FILLER_0_21_205
*431 FILLER_0_21_209
*432 FILLER_0_21_258
*433 FILLER_0_21_274
*434 FILLER_0_21_278
*435 FILLER_0_21_282
*436 FILLER_0_21_314
*437 FILLER_0_21_322
*438 FILLER_0_21_66
*439 FILLER_0_21_72
*440 FILLER_0_22_101
*441 FILLER_0_22_107
*442 FILLER_0_22_115
*443 FILLER_0_22_125
*444 FILLER_0_22_130
*445 FILLER_0_22_173
*446 FILLER_0_22_185
*447 FILLER_0_22_2
*448 FILLER_0_22_236
*449 FILLER_0_22_240
*450 FILLER_0_22_244
*451 FILLER_0_22_251
*452 FILLER_0_22_317
*453 FILLER_0_22_34
*454 FILLER_0_22_37
*455 FILLER_0_23_100
*456 FILLER_0_23_112
*457 FILLER_0_23_119
*458 FILLER_0_23_123
*459 FILLER_0_23_132
*460 FILLER_0_23_2
*461 FILLER_0_23_207
*462 FILLER_0_23_209
*463 FILLER_0_23_212
*464 FILLER_0_23_214
*465 FILLER_0_23_255
*466 FILLER_0_23_271
*467 FILLER_0_23_279
*468 FILLER_0_23_282
*469 FILLER_0_23_314
*470 FILLER_0_23_322
*471 FILLER_0_23_66
*472 FILLER_0_23_72
*473 FILLER_0_23_88
*474 FILLER_0_23_96
*475 FILLER_0_24_120
*476 FILLER_0_24_160
*477 FILLER_0_24_204
*478 FILLER_0_24_220
*479 FILLER_0_24_233
*480 FILLER_0_24_241
*481 FILLER_0_24_251
*482 FILLER_0_24_28
*483 FILLER_0_24_317
*484 FILLER_0_24_32
*485 FILLER_0_24_321
*486 FILLER_0_24_34
*487 FILLER_0_24_37
*488 FILLER_0_24_69
*489 FILLER_0_24_73
*490 FILLER_0_24_75
*491 FILLER_0_25_115
*492 FILLER_0_25_117
*493 FILLER_0_25_122
*494 FILLER_0_25_126
*495 FILLER_0_25_136
*496 FILLER_0_25_142
*497 FILLER_0_25_152
*498 FILLER_0_25_154
*499 FILLER_0_25_174
*500 FILLER_0_25_184
*501 FILLER_0_25_192
*502 FILLER_0_25_196
*503 FILLER_0_25_198
*504 FILLER_0_25_205
*505 FILLER_0_25_209
*506 FILLER_0_25_212
*507 FILLER_0_25_220
*508 FILLER_0_25_255
*509 FILLER_0_25_271
*510 FILLER_0_25_279
*511 FILLER_0_25_28
*512 FILLER_0_25_282
*513 FILLER_0_25_346
*514 FILLER_0_25_348
*515 FILLER_0_25_60
*516 FILLER_0_25_68
*517 FILLER_0_25_72
*518 FILLER_0_25_80
*519 FILLER_0_26_101
*520 FILLER_0_26_141
*521 FILLER_0_26_145
*522 FILLER_0_26_166
*523 FILLER_0_26_177
*524 FILLER_0_26_187
*525 FILLER_0_26_191
*526 FILLER_0_26_2
*527 FILLER_0_26_200
*528 FILLER_0_26_204
*529 FILLER_0_26_213
*530 FILLER_0_26_247
*531 FILLER_0_26_311
*532 FILLER_0_26_317
*533 FILLER_0_26_34
*534 FILLER_0_26_37
*535 FILLER_0_27_136
*536 FILLER_0_27_142
*537 FILLER_0_27_174
*538 FILLER_0_27_204
*539 FILLER_0_27_208
*540 FILLER_0_27_212
*541 FILLER_0_27_219
*542 FILLER_0_27_229
*543 FILLER_0_27_241
*544 FILLER_0_27_273
*545 FILLER_0_27_277
*546 FILLER_0_27_279
*547 FILLER_0_27_28
*548 FILLER_0_27_282
*549 FILLER_0_27_346
*550 FILLER_0_27_348
*551 FILLER_0_27_60
*552 FILLER_0_27_68
*553 FILLER_0_27_72
*554 FILLER_0_28_101
*555 FILLER_0_28_107
*556 FILLER_0_28_123
*557 FILLER_0_28_127
*558 FILLER_0_28_134
*559 FILLER_0_28_138
*560 FILLER_0_28_141
*561 FILLER_0_28_149
*562 FILLER_0_28_151
*563 FILLER_0_28_158
*564 FILLER_0_28_174
*565 FILLER_0_28_177
*566 FILLER_0_28_189
*567 FILLER_0_28_2
*568 FILLER_0_28_205
*569 FILLER_0_28_247
*570 FILLER_0_28_251
*571 FILLER_0_28_317
*572 FILLER_0_28_34
*573 FILLER_0_28_37
*574 FILLER_0_29_104
*575 FILLER_0_29_108
*576 FILLER_0_29_139
*577 FILLER_0_29_147
*578 FILLER_0_29_155
*579 FILLER_0_29_157
*580 FILLER_0_29_173
*581 FILLER_0_29_189
*582 FILLER_0_29_2
*583 FILLER_0_29_209
*584 FILLER_0_29_212
*585 FILLER_0_29_216
*586 FILLER_0_29_246
*587 FILLER_0_29_250
*588 FILLER_0_29_266
*589 FILLER_0_29_274
*590 FILLER_0_29_278
*591 FILLER_0_29_282
*592 FILLER_0_29_314
*593 FILLER_0_29_322
*594 FILLER_0_29_66
*595 FILLER_0_29_72
*596 FILLER_0_2_101
*597 FILLER_0_2_107
*598 FILLER_0_2_171
*599 FILLER_0_2_177
*600 FILLER_0_2_193
*601 FILLER_0_2_197
*602 FILLER_0_2_2
*603 FILLER_0_2_225
*604 FILLER_0_2_241
*605 FILLER_0_2_247
*606 FILLER_0_2_311
*607 FILLER_0_2_317
*608 FILLER_0_2_34
*609 FILLER_0_2_37
*610 FILLER_0_30_101
*611 FILLER_0_30_107
*612 FILLER_0_30_111
*613 FILLER_0_30_177
*614 FILLER_0_30_181
*615 FILLER_0_30_183
*616 FILLER_0_30_2
*617 FILLER_0_30_213
*618 FILLER_0_30_217
*619 FILLER_0_30_233
*620 FILLER_0_30_238
*621 FILLER_0_30_242
*622 FILLER_0_30_244
*623 FILLER_0_30_247
*624 FILLER_0_30_311
*625 FILLER_0_30_317
*626 FILLER_0_30_321
*627 FILLER_0_30_34
*628 FILLER_0_30_37
*629 FILLER_0_31_104
*630 FILLER_0_31_120
*631 FILLER_0_31_128
*632 FILLER_0_31_139
*633 FILLER_0_31_142
*634 FILLER_0_31_146
*635 FILLER_0_31_177
*636 FILLER_0_31_181
*637 FILLER_0_31_197
*638 FILLER_0_31_2
*639 FILLER_0_31_205
*640 FILLER_0_31_209
*641 FILLER_0_31_212
*642 FILLER_0_31_276
*643 FILLER_0_31_282
*644 FILLER_0_31_346
*645 FILLER_0_31_348
*646 FILLER_0_31_66
*647 FILLER_0_31_72
*648 FILLER_0_32_101
*649 FILLER_0_32_107
*650 FILLER_0_32_171
*651 FILLER_0_32_177
*652 FILLER_0_32_2
*653 FILLER_0_32_241
*654 FILLER_0_32_247
*655 FILLER_0_32_311
*656 FILLER_0_32_317
*657 FILLER_0_32_34
*658 FILLER_0_32_37
*659 FILLER_0_33_136
*660 FILLER_0_33_142
*661 FILLER_0_33_2
*662 FILLER_0_33_206
*663 FILLER_0_33_212
*664 FILLER_0_33_276
*665 FILLER_0_33_282
*666 FILLER_0_33_346
*667 FILLER_0_33_348
*668 FILLER_0_33_66
*669 FILLER_0_33_72
*670 FILLER_0_34_101
*671 FILLER_0_34_107
*672 FILLER_0_34_171
*673 FILLER_0_34_177
*674 FILLER_0_34_2
*675 FILLER_0_34_241
*676 FILLER_0_34_247
*677 FILLER_0_34_311
*678 FILLER_0_34_317
*679 FILLER_0_34_34
*680 FILLER_0_34_37
*681 FILLER_0_35_136
*682 FILLER_0_35_142
*683 FILLER_0_35_2
*684 FILLER_0_35_206
*685 FILLER_0_35_212
*686 FILLER_0_35_276
*687 FILLER_0_35_282
*688 FILLER_0_35_346
*689 FILLER_0_35_348
*690 FILLER_0_35_66
*691 FILLER_0_35_72
*692 FILLER_0_36_101
*693 FILLER_0_36_107
*694 FILLER_0_36_171
*695 FILLER_0_36_177
*696 FILLER_0_36_2
*697 FILLER_0_36_241
*698 FILLER_0_36_247
*699 FILLER_0_36_311
*700 FILLER_0_36_317
*701 FILLER_0_36_34
*702 FILLER_0_36_37
*703 FILLER_0_37_136
*704 FILLER_0_37_142
*705 FILLER_0_37_2
*706 FILLER_0_37_206
*707 FILLER_0_37_212
*708 FILLER_0_37_276
*709 FILLER_0_37_282
*710 FILLER_0_37_346
*711 FILLER_0_37_348
*712 FILLER_0_37_66
*713 FILLER_0_37_72
*714 FILLER_0_38_101
*715 FILLER_0_38_107
*716 FILLER_0_38_171
*717 FILLER_0_38_177
*718 FILLER_0_38_2
*719 FILLER_0_38_241
*720 FILLER_0_38_247
*721 FILLER_0_38_311
*722 FILLER_0_38_317
*723 FILLER_0_38_34
*724 FILLER_0_38_37
*725 FILLER_0_39_136
*726 FILLER_0_39_142
*727 FILLER_0_39_2
*728 FILLER_0_39_206
*729 FILLER_0_39_212
*730 FILLER_0_39_276
*731 FILLER_0_39_282
*732 FILLER_0_39_346
*733 FILLER_0_39_348
*734 FILLER_0_39_66
*735 FILLER_0_39_72
*736 FILLER_0_3_136
*737 FILLER_0_3_142
*738 FILLER_0_3_2
*739 FILLER_0_3_206
*740 FILLER_0_3_212
*741 FILLER_0_3_276
*742 FILLER_0_3_282
*743 FILLER_0_3_346
*744 FILLER_0_3_348
*745 FILLER_0_3_66
*746 FILLER_0_3_72
*747 FILLER_0_40_101
*748 FILLER_0_40_107
*749 FILLER_0_40_171
*750 FILLER_0_40_177
*751 FILLER_0_40_2
*752 FILLER_0_40_241
*753 FILLER_0_40_247
*754 FILLER_0_40_311
*755 FILLER_0_40_317
*756 FILLER_0_40_34
*757 FILLER_0_40_37
*758 FILLER_0_41_136
*759 FILLER_0_41_142
*760 FILLER_0_41_2
*761 FILLER_0_41_206
*762 FILLER_0_41_212
*763 FILLER_0_41_276
*764 FILLER_0_41_282
*765 FILLER_0_41_346
*766 FILLER_0_41_348
*767 FILLER_0_41_66
*768 FILLER_0_41_72
*769 FILLER_0_42_101
*770 FILLER_0_42_107
*771 FILLER_0_42_171
*772 FILLER_0_42_177
*773 FILLER_0_42_2
*774 FILLER_0_42_241
*775 FILLER_0_42_247
*776 FILLER_0_42_311
*777 FILLER_0_42_317
*778 FILLER_0_42_333
*779 FILLER_0_42_34
*780 FILLER_0_42_341
*781 FILLER_0_42_37
*782 FILLER_0_43_136
*783 FILLER_0_43_168
*784 FILLER_0_43_195
*785 FILLER_0_43_2
*786 FILLER_0_43_203
*787 FILLER_0_43_207
*788 FILLER_0_43_209
*789 FILLER_0_43_238
*790 FILLER_0_43_270
*791 FILLER_0_43_278
*792 FILLER_0_43_282
*793 FILLER_0_43_346
*794 FILLER_0_43_348
*795 FILLER_0_43_66
*796 FILLER_0_43_72
*797 FILLER_0_44_104
*798 FILLER_0_44_138
*799 FILLER_0_44_165
*800 FILLER_0_44_169
*801 FILLER_0_44_172
*802 FILLER_0_44_174
*803 FILLER_0_44_2
*804 FILLER_0_44_201
*805 FILLER_0_44_203
*806 FILLER_0_44_232
*807 FILLER_0_44_236
*808 FILLER_0_44_240
*809 FILLER_0_44_274
*810 FILLER_0_44_308
*811 FILLER_0_44_342
*812 FILLER_0_44_346
*813 FILLER_0_44_348
*814 FILLER_0_44_36
*815 FILLER_0_44_40
*816 FILLER_0_44_42
*817 FILLER_0_44_47
*818 FILLER_0_44_63
*819 FILLER_0_44_67
*820 FILLER_0_44_70
*821 FILLER_0_4_101
*822 FILLER_0_4_107
*823 FILLER_0_4_171
*824 FILLER_0_4_177
*825 FILLER_0_4_2
*826 FILLER_0_4_241
*827 FILLER_0_4_247
*828 FILLER_0_4_311
*829 FILLER_0_4_317
*830 FILLER_0_4_34
*831 FILLER_0_4_37
*832 FILLER_0_5_136
*833 FILLER_0_5_142
*834 FILLER_0_5_2
*835 FILLER_0_5_206
*836 FILLER_0_5_212
*837 FILLER_0_5_276
*838 FILLER_0_5_282
*839 FILLER_0_5_346
*840 FILLER_0_5_348
*841 FILLER_0_5_66
*842 FILLER_0_5_72
*843 FILLER_0_6_101
*844 FILLER_0_6_107
*845 FILLER_0_6_171
*846 FILLER_0_6_177
*847 FILLER_0_6_2
*848 FILLER_0_6_241
*849 FILLER_0_6_247
*850 FILLER_0_6_311
*851 FILLER_0_6_317
*852 FILLER_0_6_34
*853 FILLER_0_6_37
*854 FILLER_0_7_136
*855 FILLER_0_7_142
*856 FILLER_0_7_2
*857 FILLER_0_7_206
*858 FILLER_0_7_212
*859 FILLER_0_7_276
*860 FILLER_0_7_282
*861 FILLER_0_7_346
*862 FILLER_0_7_348
*863 FILLER_0_7_66
*864 FILLER_0_7_72
*865 FILLER_0_8_101
*866 FILLER_0_8_107
*867 FILLER_0_8_171
*868 FILLER_0_8_177
*869 FILLER_0_8_2
*870 FILLER_0_8_241
*871 FILLER_0_8_247
*872 FILLER_0_8_311
*873 FILLER_0_8_317
*874 FILLER_0_8_34
*875 FILLER_0_8_37
*876 FILLER_0_9_136
*877 FILLER_0_9_142
*878 FILLER_0_9_2
*879 FILLER_0_9_206
*880 FILLER_0_9_212
*881 FILLER_0_9_276
*882 FILLER_0_9_282
*883 FILLER_0_9_346
*884 FILLER_0_9_348
*885 FILLER_0_9_66
*886 FILLER_0_9_72
*887 PHY_EDGE_ROW_0_Left_45
*888 PHY_EDGE_ROW_0_Right_0
*889 PHY_EDGE_ROW_10_Left_55
*890 PHY_EDGE_ROW_10_Right_10
*891 PHY_EDGE_ROW_11_Left_56
*892 PHY_EDGE_ROW_11_Right_11
*893 PHY_EDGE_ROW_12_Left_57
*894 PHY_EDGE_ROW_12_Right_12
*895 PHY_EDGE_ROW_13_Left_58
*896 PHY_EDGE_ROW_13_Right_13
*897 PHY_EDGE_ROW_14_Left_59
*898 PHY_EDGE_ROW_14_Right_14
*899 PHY_EDGE_ROW_15_Left_60
*900 PHY_EDGE_ROW_15_Right_15
*901 PHY_EDGE_ROW_16_Left_61
*902 PHY_EDGE_ROW_16_Right_16
*903 PHY_EDGE_ROW_17_Left_62
*904 PHY_EDGE_ROW_17_Right_17
*905 PHY_EDGE_ROW_18_Left_63
*906 PHY_EDGE_ROW_18_Right_18
*907 PHY_EDGE_ROW_19_Left_64
*908 PHY_EDGE_ROW_19_Right_19
*909 PHY_EDGE_ROW_1_Left_46
*910 PHY_EDGE_ROW_1_Right_1
*911 PHY_EDGE_ROW_20_Left_65
*912 PHY_EDGE_ROW_20_Right_20
*913 PHY_EDGE_ROW_21_Left_66
*914 PHY_EDGE_ROW_21_Right_21
*915 PHY_EDGE_ROW_22_Left_67
*916 PHY_EDGE_ROW_22_Right_22
*917 PHY_EDGE_ROW_23_Left_68
*918 PHY_EDGE_ROW_23_Right_23
*919 PHY_EDGE_ROW_24_Left_69
*920 PHY_EDGE_ROW_24_Right_24
*921 PHY_EDGE_ROW_25_Left_70
*922 PHY_EDGE_ROW_25_Right_25
*923 PHY_EDGE_ROW_26_Left_71
*924 PHY_EDGE_ROW_26_Right_26
*925 PHY_EDGE_ROW_27_Left_72
*926 PHY_EDGE_ROW_27_Right_27
*927 PHY_EDGE_ROW_28_Left_73
*928 PHY_EDGE_ROW_28_Right_28
*929 PHY_EDGE_ROW_29_Left_74
*930 PHY_EDGE_ROW_29_Right_29
*931 PHY_EDGE_ROW_2_Left_47
*932 PHY_EDGE_ROW_2_Right_2
*933 PHY_EDGE_ROW_30_Left_75
*934 PHY_EDGE_ROW_30_Right_30
*935 PHY_EDGE_ROW_31_Left_76
*936 PHY_EDGE_ROW_31_Right_31
*937 PHY_EDGE_ROW_32_Left_77
*938 PHY_EDGE_ROW_32_Right_32
*939 PHY_EDGE_ROW_33_Left_78
*940 PHY_EDGE_ROW_33_Right_33
*941 PHY_EDGE_ROW_34_Left_79
*942 PHY_EDGE_ROW_34_Right_34
*943 PHY_EDGE_ROW_35_Left_80
*944 PHY_EDGE_ROW_35_Right_35
*945 PHY_EDGE_ROW_36_Left_81
*946 PHY_EDGE_ROW_36_Right_36
*947 PHY_EDGE_ROW_37_Left_82
*948 PHY_EDGE_ROW_37_Right_37
*949 PHY_EDGE_ROW_38_Left_83
*950 PHY_EDGE_ROW_38_Right_38
*951 PHY_EDGE_ROW_39_Left_84
*952 PHY_EDGE_ROW_39_Right_39
*953 PHY_EDGE_ROW_3_Left_48
*954 PHY_EDGE_ROW_3_Right_3
*955 PHY_EDGE_ROW_40_Left_85
*956 PHY_EDGE_ROW_40_Right_40
*957 PHY_EDGE_ROW_41_Left_86
*958 PHY_EDGE_ROW_41_Right_41
*959 PHY_EDGE_ROW_42_Left_87
*960 PHY_EDGE_ROW_42_Right_42
*961 PHY_EDGE_ROW_43_Left_88
*962 PHY_EDGE_ROW_43_Right_43
*963 PHY_EDGE_ROW_44_Left_89
*964 PHY_EDGE_ROW_44_Right_44
*965 PHY_EDGE_ROW_4_Left_49
*966 PHY_EDGE_ROW_4_Right_4
*967 PHY_EDGE_ROW_5_Left_50
*968 PHY_EDGE_ROW_5_Right_5
*969 PHY_EDGE_ROW_6_Left_51
*970 PHY_EDGE_ROW_6_Right_6
*971 PHY_EDGE_ROW_7_Left_52
*972 PHY_EDGE_ROW_7_Right_7
*973 PHY_EDGE_ROW_8_Left_53
*974 PHY_EDGE_ROW_8_Right_8
*975 PHY_EDGE_ROW_9_Left_54
*976 PHY_EDGE_ROW_9_Right_9
*977 TAP_TAPCELL_ROW_0_90
*978 TAP_TAPCELL_ROW_0_91
*979 TAP_TAPCELL_ROW_0_92
*980 TAP_TAPCELL_ROW_0_93
*981 TAP_TAPCELL_ROW_0_94
*982 TAP_TAPCELL_ROW_0_95
*983 TAP_TAPCELL_ROW_0_96
*984 TAP_TAPCELL_ROW_0_97
*985 TAP_TAPCELL_ROW_0_98
*986 TAP_TAPCELL_ROW_0_99
*987 TAP_TAPCELL_ROW_10_140
*988 TAP_TAPCELL_ROW_10_141
*989 TAP_TAPCELL_ROW_10_142
*990 TAP_TAPCELL_ROW_10_143
*991 TAP_TAPCELL_ROW_10_144
*992 TAP_TAPCELL_ROW_11_145
*993 TAP_TAPCELL_ROW_11_146
*994 TAP_TAPCELL_ROW_11_147
*995 TAP_TAPCELL_ROW_11_148
*996 TAP_TAPCELL_ROW_12_149
*997 TAP_TAPCELL_ROW_12_150
*998 TAP_TAPCELL_ROW_12_151
*999 TAP_TAPCELL_ROW_12_152
*1000 TAP_TAPCELL_ROW_12_153
*1001 TAP_TAPCELL_ROW_13_154
*1002 TAP_TAPCELL_ROW_13_155
*1003 TAP_TAPCELL_ROW_13_156
*1004 TAP_TAPCELL_ROW_13_157
*1005 TAP_TAPCELL_ROW_14_158
*1006 TAP_TAPCELL_ROW_14_159
*1007 TAP_TAPCELL_ROW_14_160
*1008 TAP_TAPCELL_ROW_14_161
*1009 TAP_TAPCELL_ROW_14_162
*1010 TAP_TAPCELL_ROW_15_163
*1011 TAP_TAPCELL_ROW_15_164
*1012 TAP_TAPCELL_ROW_15_165
*1013 TAP_TAPCELL_ROW_15_166
*1014 TAP_TAPCELL_ROW_16_167
*1015 TAP_TAPCELL_ROW_16_168
*1016 TAP_TAPCELL_ROW_16_169
*1017 TAP_TAPCELL_ROW_16_170
*1018 TAP_TAPCELL_ROW_16_171
*1019 TAP_TAPCELL_ROW_17_172
*1020 TAP_TAPCELL_ROW_17_173
*1021 TAP_TAPCELL_ROW_17_174
*1022 TAP_TAPCELL_ROW_17_175
*1023 TAP_TAPCELL_ROW_18_176
*1024 TAP_TAPCELL_ROW_18_177
*1025 TAP_TAPCELL_ROW_18_178
*1026 TAP_TAPCELL_ROW_18_179
*1027 TAP_TAPCELL_ROW_18_180
*1028 TAP_TAPCELL_ROW_19_181
*1029 TAP_TAPCELL_ROW_19_182
*1030 TAP_TAPCELL_ROW_19_183
*1031 TAP_TAPCELL_ROW_19_184
*1032 TAP_TAPCELL_ROW_1_100
*1033 TAP_TAPCELL_ROW_1_101
*1034 TAP_TAPCELL_ROW_1_102
*1035 TAP_TAPCELL_ROW_1_103
*1036 TAP_TAPCELL_ROW_20_185
*1037 TAP_TAPCELL_ROW_20_186
*1038 TAP_TAPCELL_ROW_20_187
*1039 TAP_TAPCELL_ROW_20_188
*1040 TAP_TAPCELL_ROW_20_189
*1041 TAP_TAPCELL_ROW_21_190
*1042 TAP_TAPCELL_ROW_21_191
*1043 TAP_TAPCELL_ROW_21_192
*1044 TAP_TAPCELL_ROW_21_193
*1045 TAP_TAPCELL_ROW_22_194
*1046 TAP_TAPCELL_ROW_22_195
*1047 TAP_TAPCELL_ROW_22_196
*1048 TAP_TAPCELL_ROW_22_197
*1049 TAP_TAPCELL_ROW_22_198
*1050 TAP_TAPCELL_ROW_23_199
*1051 TAP_TAPCELL_ROW_23_200
*1052 TAP_TAPCELL_ROW_23_201
*1053 TAP_TAPCELL_ROW_23_202
*1054 TAP_TAPCELL_ROW_24_203
*1055 TAP_TAPCELL_ROW_24_204
*1056 TAP_TAPCELL_ROW_24_205
*1057 TAP_TAPCELL_ROW_24_206
*1058 TAP_TAPCELL_ROW_24_207
*1059 TAP_TAPCELL_ROW_25_208
*1060 TAP_TAPCELL_ROW_25_209
*1061 TAP_TAPCELL_ROW_25_210
*1062 TAP_TAPCELL_ROW_25_211
*1063 TAP_TAPCELL_ROW_26_212
*1064 TAP_TAPCELL_ROW_26_213
*1065 TAP_TAPCELL_ROW_26_214
*1066 TAP_TAPCELL_ROW_26_215
*1067 TAP_TAPCELL_ROW_26_216
*1068 TAP_TAPCELL_ROW_27_217
*1069 TAP_TAPCELL_ROW_27_218
*1070 TAP_TAPCELL_ROW_27_219
*1071 TAP_TAPCELL_ROW_27_220
*1072 TAP_TAPCELL_ROW_28_221
*1073 TAP_TAPCELL_ROW_28_222
*1074 TAP_TAPCELL_ROW_28_223
*1075 TAP_TAPCELL_ROW_28_224
*1076 TAP_TAPCELL_ROW_28_225
*1077 TAP_TAPCELL_ROW_29_226
*1078 TAP_TAPCELL_ROW_29_227
*1079 TAP_TAPCELL_ROW_29_228
*1080 TAP_TAPCELL_ROW_29_229
*1081 TAP_TAPCELL_ROW_2_104
*1082 TAP_TAPCELL_ROW_2_105
*1083 TAP_TAPCELL_ROW_2_106
*1084 TAP_TAPCELL_ROW_2_107
*1085 TAP_TAPCELL_ROW_2_108
*1086 TAP_TAPCELL_ROW_30_230
*1087 TAP_TAPCELL_ROW_30_231
*1088 TAP_TAPCELL_ROW_30_232
*1089 TAP_TAPCELL_ROW_30_233
*1090 TAP_TAPCELL_ROW_30_234
*1091 TAP_TAPCELL_ROW_31_235
*1092 TAP_TAPCELL_ROW_31_236
*1093 TAP_TAPCELL_ROW_31_237
*1094 TAP_TAPCELL_ROW_31_238
*1095 TAP_TAPCELL_ROW_32_239
*1096 TAP_TAPCELL_ROW_32_240
*1097 TAP_TAPCELL_ROW_32_241
*1098 TAP_TAPCELL_ROW_32_242
*1099 TAP_TAPCELL_ROW_32_243
*1100 TAP_TAPCELL_ROW_33_244
*1101 TAP_TAPCELL_ROW_33_245
*1102 TAP_TAPCELL_ROW_33_246
*1103 TAP_TAPCELL_ROW_33_247
*1104 TAP_TAPCELL_ROW_34_248
*1105 TAP_TAPCELL_ROW_34_249
*1106 TAP_TAPCELL_ROW_34_250
*1107 TAP_TAPCELL_ROW_34_251
*1108 TAP_TAPCELL_ROW_34_252
*1109 TAP_TAPCELL_ROW_35_253
*1110 TAP_TAPCELL_ROW_35_254
*1111 TAP_TAPCELL_ROW_35_255
*1112 TAP_TAPCELL_ROW_35_256
*1113 TAP_TAPCELL_ROW_36_257
*1114 TAP_TAPCELL_ROW_36_258
*1115 TAP_TAPCELL_ROW_36_259
*1116 TAP_TAPCELL_ROW_36_260
*1117 TAP_TAPCELL_ROW_36_261
*1118 TAP_TAPCELL_ROW_37_262
*1119 TAP_TAPCELL_ROW_37_263
*1120 TAP_TAPCELL_ROW_37_264
*1121 TAP_TAPCELL_ROW_37_265
*1122 TAP_TAPCELL_ROW_38_266
*1123 TAP_TAPCELL_ROW_38_267
*1124 TAP_TAPCELL_ROW_38_268
*1125 TAP_TAPCELL_ROW_38_269
*1126 TAP_TAPCELL_ROW_38_270
*1127 TAP_TAPCELL_ROW_39_271
*1128 TAP_TAPCELL_ROW_39_272
*1129 TAP_TAPCELL_ROW_39_273
*1130 TAP_TAPCELL_ROW_39_274
*1131 TAP_TAPCELL_ROW_3_109
*1132 TAP_TAPCELL_ROW_3_110
*1133 TAP_TAPCELL_ROW_3_111
*1134 TAP_TAPCELL_ROW_3_112
*1135 TAP_TAPCELL_ROW_40_275
*1136 TAP_TAPCELL_ROW_40_276
*1137 TAP_TAPCELL_ROW_40_277
*1138 TAP_TAPCELL_ROW_40_278
*1139 TAP_TAPCELL_ROW_40_279
*1140 TAP_TAPCELL_ROW_41_280
*1141 TAP_TAPCELL_ROW_41_281
*1142 TAP_TAPCELL_ROW_41_282
*1143 TAP_TAPCELL_ROW_41_283
*1144 TAP_TAPCELL_ROW_42_284
*1145 TAP_TAPCELL_ROW_42_285
*1146 TAP_TAPCELL_ROW_42_286
*1147 TAP_TAPCELL_ROW_42_287
*1148 TAP_TAPCELL_ROW_42_288
*1149 TAP_TAPCELL_ROW_43_289
*1150 TAP_TAPCELL_ROW_43_290
*1151 TAP_TAPCELL_ROW_43_291
*1152 TAP_TAPCELL_ROW_43_292
*1153 TAP_TAPCELL_ROW_44_293
*1154 TAP_TAPCELL_ROW_44_294
*1155 TAP_TAPCELL_ROW_44_295
*1156 TAP_TAPCELL_ROW_44_296
*1157 TAP_TAPCELL_ROW_44_297
*1158 TAP_TAPCELL_ROW_44_298
*1159 TAP_TAPCELL_ROW_44_299
*1160 TAP_TAPCELL_ROW_44_300
*1161 TAP_TAPCELL_ROW_44_301
*1162 TAP_TAPCELL_ROW_44_302
*1163 TAP_TAPCELL_ROW_4_113
*1164 TAP_TAPCELL_ROW_4_114
*1165 TAP_TAPCELL_ROW_4_115
*1166 TAP_TAPCELL_ROW_4_116
*1167 TAP_TAPCELL_ROW_4_117
*1168 TAP_TAPCELL_ROW_5_118
*1169 TAP_TAPCELL_ROW_5_119
*1170 TAP_TAPCELL_ROW_5_120
*1171 TAP_TAPCELL_ROW_5_121
*1172 TAP_TAPCELL_ROW_6_122
*1173 TAP_TAPCELL_ROW_6_123
*1174 TAP_TAPCELL_ROW_6_124
*1175 TAP_TAPCELL_ROW_6_125
*1176 TAP_TAPCELL_ROW_6_126
*1177 TAP_TAPCELL_ROW_7_127
*1178 TAP_TAPCELL_ROW_7_128
*1179 TAP_TAPCELL_ROW_7_129
*1180 TAP_TAPCELL_ROW_7_130
*1181 TAP_TAPCELL_ROW_8_131
*1182 TAP_TAPCELL_ROW_8_132
*1183 TAP_TAPCELL_ROW_8_133
*1184 TAP_TAPCELL_ROW_8_134
*1185 TAP_TAPCELL_ROW_8_135
*1186 TAP_TAPCELL_ROW_9_136
*1187 TAP_TAPCELL_ROW_9_137
*1188 TAP_TAPCELL_ROW_9_138
*1189 TAP_TAPCELL_ROW_9_139
*1190 _110_
*1191 _111_
*1192 _112_
*1193 _113_
*1194 _114_
*1195 _115_
*1196 _116_
*1197 _117_
*1198 _118_
*1199 _119_
*1200 _120_
*1201 _121_
*1202 _122_
*1203 _123_
*1204 _124_
*1205 _125_
*1206 _126_
*1207 _127_
*1208 _128_
*1209 _129_
*1210 _130_
*1211 _131_
*1212 _132_
*1213 _133_
*1214 _134_
*1215 _135_
*1216 _136_
*1217 _137_
*1218 _138_
*1219 _139_
*1220 _140_
*1221 _141_
*1222 _142_
*1223 _143_
*1224 _144_
*1225 _145_
*1226 _146_
*1227 _147_
*1228 _148_
*1229 _149_
*1230 _150_
*1231 _151_
*1232 _152_
*1233 _153_
*1234 _154_
*1235 _155_
*1236 _156_
*1237 _157_
*1238 _158_
*1239 _159_
*1240 _160_
*1241 _161_
*1242 _162_
*1243 _163_
*1244 _164_
*1245 _165_
*1246 _166_
*1247 _167_
*1248 _168_
*1249 _169_
*1250 _170_
*1251 _171_
*1252 _172_
*1253 _173_
*1254 _174_
*1255 _175_
*1256 _176_
*1257 _177_
*1258 _178_
*1259 _179_
*1260 _180_
*1261 _181_
*1262 _182_
*1263 _183_
*1264 _184_
*1265 _185_
*1266 _186_
*1267 _187_
*1268 _188_
*1269 _189_
*1270 _190_
*1271 _191_
*1272 _192_
*1273 _193_
*1274 _194_
*1275 _195_
*1276 _196_
*1277 _197_
*1278 _198_
*1279 _199_
*1280 _200_
*1281 _201_
*1282 _202_
*1283 _203_
*1284 _204_
*1285 _205_
*1286 _206_
*1287 _207_
*1288 _208_
*1289 _209_
*1290 _210_
*1291 _211_
*1292 _212_
*1293 _213_
*1294 _214_
*1295 _215_
*1296 _216_
*1297 _217_
*1298 _218_
*1299 _219_
*1300 _220_
*1301 _221_
*1302 _222_
*1303 _223_
*1304 _224_
*1305 _225_
*1306 _226_
*1307 _227_
*1308 _228_
*1309 _229_
*1310 _230_
*1311 _231_
*1312 _232_
*1313 _233_
*1314 _234_
*1315 _235_
*1316 _236_
*1317 _237_
*1318 _238_
*1319 _239_
*1320 _240_
*1321 _241_
*1322 _242_
*1323 _243_
*1324 _244_
*1325 _247_
*1326 _248_
*1327 _249_
*1328 clkbuf_0_clk
*1329 clkbuf_1_0__f_clk
*1330 clkbuf_1_1__f_clk
*1331 ita10_25
*1332 ita10_26
*1333 output1
*1334 output10
*1335 output11
*1336 output12
*1337 output13
*1338 output14
*1339 output15
*1340 output16
*1341 output17
*1342 output18
*1343 output19
*1344 output2
*1345 output20
*1346 output21
*1347 output22
*1348 output23
*1349 output24
*1350 output3
*1351 output4
*1352 output5
*1353 output6
*1354 output7
*1355 output8
*1356 output9

*PORTS
clk I
segm[0] O
segm[10] O
segm[11] O
segm[12] O
segm[13] O
segm[1] O
segm[2] O
segm[3] O
segm[4] O
segm[5] O
segm[6] O
segm[7] O
segm[8] O
segm[9] O
sel[0] O
sel[10] O
sel[11] O
sel[1] O
sel[2] O
sel[3] O
sel[4] O
sel[5] O
sel[6] O
sel[7] O
sel[8] O
sel[9] O

*D_NET *1 0.0117336
*CONN
*P clk I
*I *1328:I I *D gf180mcu_fd_sc_mcu7t5v0__clkbuf_16
*I *196:I I *D gf180mcu_fd_sc_mcu7t5v0__antenna
*CAP
1 clk 0.00460703
2 *1328:I 0.000207336
3 *196:I 0
4 *1:17 0.00481437
5 *1328:I *1226:I 2.62889e-05
6 *1328:I *84:22 0.000158809
7 *1328:I *99:27 0.000131663
8 *1328:I *120:28 3.51269e-05
9 *1:17 *1213:I 0.000372003
10 *1:17 *1231:A1 3.47244e-05
11 *1:17 *1261:A1 0.000286033
12 *1:17 *99:27 0.000175176
13 *1:17 *101:10 0
14 *1:17 *120:10 4.16068e-05
15 *1:17 *120:19 3.56825e-05
16 *1:17 *120:28 2.97354e-05
17 *1:17 *143:10 0.000778054
*RES
1 clk *1:17 42.022 
2 *1:17 *196:I 9 
3 *1:17 *1328:I 10.748 
*END

*D_NET *2 0.00148312
*CONN
*P segm[0] O
*I *1331:ZN O *D gf180mcu_fd_sc_mcu7t5v0__tiel
*CAP
1 segm[0] 0.000741562
2 *1331:ZN 0.000741562
*RES
1 *1331:ZN segm[0] 9.478 
*END

*D_NET *3 0.00193926
*CONN
*P segm[10] O
*I *1333:Z O *D gf180mcu_fd_sc_mcu7t5v0__buf_8
*CAP
1 segm[10] 0.000969632
2 *1333:Z 0.000969632
*RES
1 *1333:Z segm[10] 19.846 
*END

*D_NET *4 0.0020741
*CONN
*P segm[11] O
*I *1344:Z O *D gf180mcu_fd_sc_mcu7t5v0__buf_8
*CAP
1 segm[11] 0.00103705
2 *1344:Z 0.00103705
3 segm[11] sel[11] 0
*RES
1 *1344:Z segm[11] 20.454 
*END

*D_NET *5 0.00202763
*CONN
*P segm[12] O
*I *1350:Z O *D gf180mcu_fd_sc_mcu7t5v0__buf_8
*CAP
1 segm[12] 0.000922032
2 *1350:Z 0.000922032
3 segm[12] segm[2] 9.90639e-05
4 segm[12] *1353:I 8.45062e-05
*RES
1 *1350:Z segm[12] 19.998 
*END

*D_NET *6 0.00193926
*CONN
*P segm[13] O
*I *1351:Z O *D gf180mcu_fd_sc_mcu7t5v0__buf_8
*CAP
1 segm[13] 0.000969632
2 *1351:Z 0.000969632
*RES
1 *1351:Z segm[13] 19.846 
*END

*D_NET *7 0.00071058
*CONN
*P segm[1] O
*I *1352:Z O *D gf180mcu_fd_sc_mcu7t5v0__buf_8
*CAP
1 segm[1] 0.000326594
2 *1352:Z 0.000326594
3 segm[1] segm[4] 5.73926e-05
*RES
1 *1352:Z segm[1] 11.09 
*END

*D_NET *8 0.00238867
*CONN
*P segm[2] O
*I *1353:Z O *D gf180mcu_fd_sc_mcu7t5v0__buf_8
*CAP
1 segm[2] 0.00107667
2 *1353:Z 0.00107667
3 segm[2] segm[5] 0.000119727