*SPEF "ieee 1481-1999"
*DESIGN "ita15"
*DATE "11:11:11 Fri 11 11, 1111"
*VENDOR "OpenRCX"
*PROGRAM "Parallel Extraction"
*VERSION "1.0"
*DESIGN_FLOW "NAME_SCOPE LOCAL" "PIN_CAP NONE"
*DIVIDER /
*DELIMITER :
*BUS_DELIMITER []
*T_UNIT 1 NS
*C_UNIT 1 PF
*R_UNIT 1 OHM
*L_UNIT 1 HENRY

*NAME_MAP
*1 clk
*2 segm[0]
*3 segm[10]
*4 segm[11]
*5 segm[12]
*6 segm[13]
*7 segm[1]
*8 segm[2]
*9 segm[3]
*10 segm[4]
*11 segm[5]
*12 segm[6]
*13 segm[7]
*14 segm[8]
*15 segm[9]
*16 sel[0]
*17 sel[10]
*18 sel[11]
*19 sel[1]
*20 sel[2]
*21 sel[3]
*22 sel[4]
*23 sel[5]
*24 sel[6]
*25 sel[7]
*26 sel[8]
*27 sel[9]
*30 _000_
*31 _001_
*32 _002_
*33 _003_
*34 _004_
*35 _005_
*36 _006_
*37 _007_
*38 _008_
*39 _009_
*40 _010_
*41 _011_
*42 _012_
*43 _013_
*44 _014_
*45 _015_
*46 _016_
*47 _017_
*48 _018_
*49 _019_
*50 _020_
*51 _021_
*52 _022_
*53 _023_
*54 _024_
*55 _025_
*56 _026_
*57 _027_
*58 _028_
*59 _029_
*60 _030_
*61 _031_
*62 _032_
*63 _033_
*64 _034_
*65 _035_
*66 _036_
*67 _037_
*68 _038_
*69 _039_
*70 _040_
*71 _041_
*72 _042_
*73 _043_
*74 _044_
*75 _045_
*76 _046_
*77 _047_
*78 _048_
*79 _049_
*80 _050_
*81 _051_
*82 _052_
*83 _053_
*84 _054_
*85 _055_
*86 _056_
*87 _057_
*88 _058_
*89 _059_
*90 _060_
*91 _061_
*92 _062_
*93 _063_
*94 _064_
*95 _065_
*96 _066_
*97 _067_
*98 _068_
*99 _069_
*100 _070_
*101 _071_
*102 _072_
*103 _073_
*104 _074_
*105 _075_
*106 _076_
*107 _077_
*108 _078_
*109 _079_
*110 _080_
*111 _081_
*112 _082_
*113 _083_
*114 _084_
*115 _085_
*116 _086_
*117 _087_
*118 _088_
*119 _089_
*120 _090_
*121 _091_
*122 _092_
*123 _093_
*124 _094_
*125 _095_
*126 _096_
*127 _097_
*128 _098_
*129 _099_
*130 _100_
*131 _101_
*132 _102_
*133 _103_
*134 clknet_0_clk
*135 clknet_1_0__leaf_clk
*136 clknet_1_1__leaf_clk
*137 dut15\.count\[0\]
*138 dut15\.count\[1\]
*139 dut15\.count\[2\]
*140 dut15\.count\[3\]
*141 net1
*142 net10
*143 net11
*144 net12
*145 net13
*146 net14
*147 net15
*148 net16
*149 net17
*150 net18
*151 net19
*152 net2
*153 net20
*154 net21
*155 net22
*156 net23
*157 net24
*158 net25
*159 net26
*160 net3
*161 net4
*162 net5
*163 net6
*164 net7
*165 net8
*166 net9
*167 ANTENNA__135__A2
*168 ANTENNA__173__A2
*169 ANTENNA__186__A1
*170 ANTENNA__208__CLK
*171 ANTENNA__209__CLK
*172 ANTENNA__210__CLK
*173 ANTENNA__211__CLK
*174 ANTENNA__212__CLK
*175 ANTENNA__213__CLK
*176 ANTENNA__214__CLK
*177 ANTENNA__215__CLK
*178 ANTENNA__216__CLK
*179 ANTENNA__217__CLK
*180 ANTENNA__218__CLK
*181 ANTENNA__219__CLK
*182 ANTENNA__220__CLK
*183 ANTENNA__221__CLK
*184 ANTENNA__222__CLK
*185 ANTENNA__223__CLK
*186 ANTENNA__224__CLK
*187 ANTENNA__225__CLK
*188 ANTENNA__226__CLK
*189 ANTENNA__227__CLK
*190 ANTENNA__228__CLK
*191 ANTENNA__229__CLK
*192 ANTENNA__230__CLK
*193 ANTENNA__231__CLK
*194 ANTENNA__232__CLK
*195 ANTENNA_clkbuf_0_clk_I
*196 FILLER_0_0_104
*197 FILLER_0_0_138
*198 FILLER_0_0_142
*199 FILLER_0_0_198
*200 FILLER_0_0_2
*201 FILLER_0_0_202
*202 FILLER_0_0_232
*203 FILLER_0_0_236
*204 FILLER_0_0_240
*205 FILLER_0_0_274
*206 FILLER_0_0_308
*207 FILLER_0_0_342
*208 FILLER_0_0_346
*209 FILLER_0_0_348
*210 FILLER_0_0_36
*211 FILLER_0_0_70
*212 FILLER_0_10_101
*213 FILLER_0_10_107
*214 FILLER_0_10_171
*215 FILLER_0_10_177
*216 FILLER_0_10_2
*217 FILLER_0_10_241
*218 FILLER_0_10_247
*219 FILLER_0_10_311
*220 FILLER_0_10_317
*221 FILLER_0_10_34
*222 FILLER_0_10_37
*223 FILLER_0_11_136
*224 FILLER_0_11_142
*225 FILLER_0_11_2
*226 FILLER_0_11_206
*227 FILLER_0_11_212
*228 FILLER_0_11_276
*229 FILLER_0_11_282
*230 FILLER_0_11_346
*231 FILLER_0_11_348
*232 FILLER_0_11_66
*233 FILLER_0_11_72
*234 FILLER_0_12_101
*235 FILLER_0_12_107
*236 FILLER_0_12_123
*237 FILLER_0_12_154
*238 FILLER_0_12_158
*239 FILLER_0_12_174
*240 FILLER_0_12_177
*241 FILLER_0_12_2
*242 FILLER_0_12_241
*243 FILLER_0_12_247
*244 FILLER_0_12_311
*245 FILLER_0_12_317
*246 FILLER_0_12_34
*247 FILLER_0_12_37
*248 FILLER_0_13_136
*249 FILLER_0_13_142
*250 FILLER_0_13_174
*251 FILLER_0_13_178
*252 FILLER_0_13_180
*253 FILLER_0_13_2
*254 FILLER_0_13_212
*255 FILLER_0_13_216
*256 FILLER_0_13_282
*257 FILLER_0_13_346
*258 FILLER_0_13_348
*259 FILLER_0_13_66
*260 FILLER_0_13_72
*261 FILLER_0_14_101
*262 FILLER_0_14_107
*263 FILLER_0_14_139
*264 FILLER_0_14_144
*265 FILLER_0_14_155
*266 FILLER_0_14_171
*267 FILLER_0_14_2
*268 FILLER_0_14_218
*269 FILLER_0_14_234
*270 FILLER_0_14_242
*271 FILLER_0_14_244
*272 FILLER_0_14_247
*273 FILLER_0_14_311
*274 FILLER_0_14_317
*275 FILLER_0_14_34
*276 FILLER_0_14_37
*277 FILLER_0_15_104
*278 FILLER_0_15_108
*279 FILLER_0_15_110
*280 FILLER_0_15_171
*281 FILLER_0_15_175
*282 FILLER_0_15_183
*283 FILLER_0_15_187
*284 FILLER_0_15_2
*285 FILLER_0_15_200
*286 FILLER_0_15_204
*287 FILLER_0_15_208
*288 FILLER_0_15_212
*289 FILLER_0_15_234
*290 FILLER_0_15_266
*291 FILLER_0_15_274
*292 FILLER_0_15_278
*293 FILLER_0_15_282
*294 FILLER_0_15_346
*295 FILLER_0_15_348
*296 FILLER_0_15_66
*297 FILLER_0_15_72
*298 FILLER_0_16_101
*299 FILLER_0_16_107
*300 FILLER_0_16_123
*301 FILLER_0_16_131
*302 FILLER_0_16_135
*303 FILLER_0_16_144
*304 FILLER_0_16_148
*305 FILLER_0_16_152
*306 FILLER_0_16_154
*307 FILLER_0_16_161
*308 FILLER_0_16_169
*309 FILLER_0_16_173
*310 FILLER_0_16_177
*311 FILLER_0_16_195
*312 FILLER_0_16_199
*313 FILLER_0_16_2
*314 FILLER_0_16_210
*315 FILLER_0_16_242
*316 FILLER_0_16_244
*317 FILLER_0_16_247
*318 FILLER_0_16_311
*319 FILLER_0_16_317
*320 FILLER_0_16_321
*321 FILLER_0_16_34
*322 FILLER_0_16_37
*323 FILLER_0_17_113
*324 FILLER_0_17_117
*325 FILLER_0_17_133
*326 FILLER_0_17_137
*327 FILLER_0_17_139
*328 FILLER_0_17_142
*329 FILLER_0_17_144
*330 FILLER_0_17_155
*331 FILLER_0_17_207
*332 FILLER_0_17_209
*333 FILLER_0_17_224
*334 FILLER_0_17_234
*335 FILLER_0_17_266
*336 FILLER_0_17_274
*337 FILLER_0_17_278
*338 FILLER_0_17_28
*339 FILLER_0_17_282
*340 FILLER_0_17_314
*341 FILLER_0_17_322
*342 FILLER_0_17_60
*343 FILLER_0_17_68
*344 FILLER_0_17_72
*345 FILLER_0_17_80
*346 FILLER_0_18_101
*347 FILLER_0_18_125
*348 FILLER_0_18_133
*349 FILLER_0_18_163
*350 FILLER_0_18_171
*351 FILLER_0_18_189
*352 FILLER_0_18_204
*353 FILLER_0_18_236
*354 FILLER_0_18_244
*355 FILLER_0_18_247
*356 FILLER_0_18_28
*357 FILLER_0_18_311
*358 FILLER_0_18_317
*359 FILLER_0_18_32
*360 FILLER_0_18_321
*361 FILLER_0_18_34
*362 FILLER_0_18_37
*363 FILLER_0_19_124
*364 FILLER_0_19_128
*365 FILLER_0_19_136
*366 FILLER_0_19_142
*367 FILLER_0_19_170
*368 FILLER_0_19_2
*369 FILLER_0_19_204
*370 FILLER_0_19_208
*371 FILLER_0_19_212
*372 FILLER_0_19_216
*373 FILLER_0_19_218
*374 FILLER_0_19_250
*375 FILLER_0_19_266
*376 FILLER_0_19_274
*377 FILLER_0_19_278
*378 FILLER_0_19_282
*379 FILLER_0_19_346
*380 FILLER_0_19_348
*381 FILLER_0_19_66
*382 FILLER_0_19_72
*383 FILLER_0_19_80
*384 FILLER_0_1_136
*385 FILLER_0_1_168
*386 FILLER_0_1_2
*387 FILLER_0_1_200
*388 FILLER_0_1_208
*389 FILLER_0_1_238
*390 FILLER_0_1_270
*391 FILLER_0_1_278
*392 FILLER_0_1_282
*393 FILLER_0_1_346
*394 FILLER_0_1_348
*395 FILLER_0_1_66
*396 FILLER_0_1_72
*397 FILLER_0_20_107
*398 FILLER_0_20_121
*399 FILLER_0_20_125
*400 FILLER_0_20_138
*401 FILLER_0_20_140
*402 FILLER_0_20_167
*403 FILLER_0_20_189
*404 FILLER_0_20_2
*405 FILLER_0_20_205
*406 FILLER_0_20_221
*407 FILLER_0_20_223
*408 FILLER_0_20_242
*409 FILLER_0_20_244
*410 FILLER_0_20_252
*411 FILLER_0_20_284
*412 FILLER_0_20_300
*413 FILLER_0_20_308
*414 FILLER_0_20_312
*415 FILLER_0_20_314
*416 FILLER_0_20_317
*417 FILLER_0_20_321
*418 FILLER_0_20_34
*419 FILLER_0_20_37
*420 FILLER_0_20_69
*421 FILLER_0_20_73
*422 FILLER_0_20_75
*423 FILLER_0_21_104
*424 FILLER_0_21_112
*425 FILLER_0_21_127
*426 FILLER_0_21_131
*427 FILLER_0_21_133
*428 FILLER_0_21_142
*429 FILLER_0_21_144
*430 FILLER_0_21_151
*431 FILLER_0_21_155
*432 FILLER_0_21_203
*433 FILLER_0_21_207
*434 FILLER_0_21_209
*435 FILLER_0_21_212
*436 FILLER_0_21_214
*437 FILLER_0_21_252
*438 FILLER_0_21_268
*439 FILLER_0_21_276
*440 FILLER_0_21_28
*441 FILLER_0_21_282
*442 FILLER_0_21_314
*443 FILLER_0_21_322
*444 FILLER_0_21_60
*445 FILLER_0_21_68
*446 FILLER_0_21_72
*447 FILLER_0_22_101
*448 FILLER_0_22_107
*449 FILLER_0_22_115
*450 FILLER_0_22_121
*451 FILLER_0_22_137
*452 FILLER_0_22_158
*453 FILLER_0_22_162
*454 FILLER_0_22_170
*455 FILLER_0_22_174
*456 FILLER_0_22_177
*457 FILLER_0_22_193
*458 FILLER_0_22_2
*459 FILLER_0_22_203
*460 FILLER_0_22_211
*461 FILLER_0_22_213
*462 FILLER_0_22_224
*463 FILLER_0_22_240
*464 FILLER_0_22_244
*465 FILLER_0_22_247
*466 FILLER_0_22_311
*467 FILLER_0_22_317
*468 FILLER_0_22_321
*469 FILLER_0_22_34
*470 FILLER_0_22_37
*471 FILLER_0_23_131
*472 FILLER_0_23_133
*473 FILLER_0_23_150
*474 FILLER_0_23_154
*475 FILLER_0_23_156
*476 FILLER_0_23_2
*477 FILLER_0_23_209
*478 FILLER_0_23_217
*479 FILLER_0_23_221
*480 FILLER_0_23_254
*481 FILLER_0_23_270
*482 FILLER_0_23_278
*483 FILLER_0_23_282
*484 FILLER_0_23_346
*485 FILLER_0_23_348
*486 FILLER_0_23_66
*487 FILLER_0_23_72
*488 FILLER_0_23_88
*489 FILLER_0_24_101
*490 FILLER_0_24_107
*491 FILLER_0_24_123
*492 FILLER_0_24_130
*493 FILLER_0_24_132
*494 FILLER_0_24_141
*495 FILLER_0_24_143
*496 FILLER_0_24_152
*497 FILLER_0_24_154
*498 FILLER_0_24_160
*499 FILLER_0_24_2
*500 FILLER_0_24_205
*501 FILLER_0_24_213
*502 FILLER_0_24_224
*503 FILLER_0_24_232
*504 FILLER_0_24_234
*505 FILLER_0_24_241
*506 FILLER_0_24_247
*507 FILLER_0_24_311
*508 FILLER_0_24_317
*509 FILLER_0_24_321
*510 FILLER_0_24_34
*511 FILLER_0_24_37
*512 FILLER_0_25_114
*513 FILLER_0_25_118
*514 FILLER_0_25_126
*515 FILLER_0_25_135
*516 FILLER_0_25_139
*517 FILLER_0_25_142
*518 FILLER_0_25_151
*519 FILLER_0_25_2
*520 FILLER_0_25_212
*521 FILLER_0_25_216
*522 FILLER_0_25_224
*523 FILLER_0_25_228
*524 FILLER_0_25_236
*525 FILLER_0_25_268
*526 FILLER_0_25_276
*527 FILLER_0_25_282
*528 FILLER_0_25_346
*529 FILLER_0_25_348
*530 FILLER_0_25_66
*531 FILLER_0_25_72
*532 FILLER_0_25_80
*533 FILLER_0_25_84
*534 FILLER_0_26_101
*535 FILLER_0_26_148
*536 FILLER_0_26_156
*537 FILLER_0_26_164
*538 FILLER_0_26_170
*539 FILLER_0_26_174
*540 FILLER_0_26_177
*541 FILLER_0_26_183
*542 FILLER_0_26_215
*543 FILLER_0_26_223
*544 FILLER_0_26_244
*545 FILLER_0_26_247
*546 FILLER_0_26_28
*547 FILLER_0_26_311
*548 FILLER_0_26_317
*549 FILLER_0_26_32
*550 FILLER_0_26_34
*551 FILLER_0_26_37
*552 FILLER_0_27_104
*553 FILLER_0_27_120
*554 FILLER_0_27_128
*555 FILLER_0_27_130
*556 FILLER_0_27_139
*557 FILLER_0_27_142
*558 FILLER_0_27_146
*559 FILLER_0_27_154
*560 FILLER_0_27_2
*561 FILLER_0_27_206
*562 FILLER_0_27_212
*563 FILLER_0_27_224
*564 FILLER_0_27_257
*565 FILLER_0_27_273
*566 FILLER_0_27_277
*567 FILLER_0_27_279
*568 FILLER_0_27_282
*569 FILLER_0_27_346
*570 FILLER_0_27_348
*571 FILLER_0_27_66
*572 FILLER_0_27_72
*573 FILLER_0_28_101
*574 FILLER_0_28_107
*575 FILLER_0_28_123
*576 FILLER_0_28_140
*577 FILLER_0_28_156
*578 FILLER_0_28_164
*579 FILLER_0_28_168
*580 FILLER_0_28_177
*581 FILLER_0_28_185
*582 FILLER_0_28_193
*583 FILLER_0_28_195
*584 FILLER_0_28_2
*585 FILLER_0_28_204
*586 FILLER_0_28_208
*587 FILLER_0_28_241
*588 FILLER_0_28_247
*589 FILLER_0_28_311
*590 FILLER_0_28_317
*591 FILLER_0_28_34
*592 FILLER_0_28_37
*593 FILLER_0_29_128
*594 FILLER_0_29_147
*595 FILLER_0_29_168
*596 FILLER_0_29_2
*597 FILLER_0_29_217
*598 FILLER_0_29_221
*599 FILLER_0_29_225
*600 FILLER_0_29_227
*601 FILLER_0_29_233
*602 FILLER_0_29_241
*603 FILLER_0_29_249
*604 FILLER_0_29_265
*605 FILLER_0_29_273
*606 FILLER_0_29_277
*607 FILLER_0_29_279
*608 FILLER_0_29_282
*609 FILLER_0_29_314
*610 FILLER_0_29_322
*611 FILLER_0_29_66
*612 FILLER_0_29_72
*613 FILLER_0_29_88
*614 FILLER_0_29_96
*615 FILLER_0_29_98
*616 FILLER_0_2_101
*617 FILLER_0_2_107
*618 FILLER_0_2_171
*619 FILLER_0_2_177
*620 FILLER_0_2_193
*621 FILLER_0_2_197
*622 FILLER_0_2_2
*623 FILLER_0_2_225
*624 FILLER_0_2_241
*625 FILLER_0_2_247
*626 FILLER_0_2_311
*627 FILLER_0_2_317
*628 FILLER_0_2_34
*629 FILLER_0_2_37
*630 FILLER_0_30_101
*631 FILLER_0_30_107
*632 FILLER_0_30_157
*633 FILLER_0_30_161
*634 FILLER_0_30_174
*635 FILLER_0_30_182
*636 FILLER_0_30_214
*637 FILLER_0_30_230
*638 FILLER_0_30_238
*639 FILLER_0_30_242
*640 FILLER_0_30_244
*641 FILLER_0_30_247
*642 FILLER_0_30_28
*643 FILLER_0_30_311
*644 FILLER_0_30_317
*645 FILLER_0_30_32
*646 FILLER_0_30_321
*647 FILLER_0_30_34
*648 FILLER_0_30_37
*649 FILLER_0_31_104
*650 FILLER_0_31_108
*651 FILLER_0_31_110
*652 FILLER_0_31_142
*653 FILLER_0_31_144
*654 FILLER_0_31_151
*655 FILLER_0_31_155
*656 FILLER_0_31_186
*657 FILLER_0_31_190
*658 FILLER_0_31_2
*659 FILLER_0_31_206
*660 FILLER_0_31_212
*661 FILLER_0_31_276
*662 FILLER_0_31_282
*663 FILLER_0_31_346
*664 FILLER_0_31_348
*665 FILLER_0_31_66
*666 FILLER_0_31_72
*667 FILLER_0_32_101
*668 FILLER_0_32_107
*669 FILLER_0_32_139
*670 FILLER_0_32_142
*671 FILLER_0_32_174
*672 FILLER_0_32_177
*673 FILLER_0_32_2
*674 FILLER_0_32_241
*675 FILLER_0_32_247
*676 FILLER_0_32_311
*677 FILLER_0_32_317
*678 FILLER_0_32_34
*679 FILLER_0_32_37
*680 FILLER_0_33_136
*681 FILLER_0_33_142
*682 FILLER_0_33_187
*683 FILLER_0_33_191
*684 FILLER_0_33_2
*685 FILLER_0_33_207
*686 FILLER_0_33_209
*687 FILLER_0_33_212
*688 FILLER_0_33_276
*689 FILLER_0_33_282
*690 FILLER_0_33_346
*691 FILLER_0_33_348
*692 FILLER_0_33_66
*693 FILLER_0_33_72
*694 FILLER_0_34_101
*695 FILLER_0_34_107
*696 FILLER_0_34_171
*697 FILLER_0_34_177
*698 FILLER_0_34_2
*699 FILLER_0_34_241
*700 FILLER_0_34_247
*701 FILLER_0_34_311
*702 FILLER_0_34_317
*703 FILLER_0_34_34
*704 FILLER_0_34_37
*705 FILLER_0_35_136
*706 FILLER_0_35_142
*707 FILLER_0_35_2
*708 FILLER_0_35_206
*709 FILLER_0_35_212
*710 FILLER_0_35_276
*711 FILLER_0_35_282
*712 FILLER_0_35_346
*713 FILLER_0_35_348
*714 FILLER_0_35_66
*715 FILLER_0_35_72
*716 FILLER_0_36_101
*717 FILLER_0_36_107
*718 FILLER_0_36_171
*719 FILLER_0_36_177
*720 FILLER_0_36_2
*721 FILLER_0_36_241
*722 FILLER_0_36_247
*723 FILLER_0_36_311
*724 FILLER_0_36_317
*725 FILLER_0_36_34
*726 FILLER_0_36_37
*727 FILLER_0_37_136
*728 FILLER_0_37_142
*729 FILLER_0_37_2
*730 FILLER_0_37_206
*731 FILLER_0_37_212
*732 FILLER_0_37_276
*733 FILLER_0_37_282
*734 FILLER_0_37_346
*735 FILLER_0_37_348
*736 FILLER_0_37_66
*737 FILLER_0_37_72
*738 FILLER_0_38_101
*739 FILLER_0_38_107
*740 FILLER_0_38_171
*741 FILLER_0_38_177
*742 FILLER_0_38_2
*743 FILLER_0_38_241
*744 FILLER_0_38_247
*745 FILLER_0_38_311
*746 FILLER_0_38_317
*747 FILLER_0_38_34
*748 FILLER_0_38_37
*749 FILLER_0_39_136
*750 FILLER_0_39_142
*751 FILLER_0_39_2
*752 FILLER_0_39_206
*753 FILLER_0_39_212
*754 FILLER_0_39_276
*755 FILLER_0_39_282
*756 FILLER_0_39_346
*757 FILLER_0_39_348
*758 FILLER_0_39_66
*759 FILLER_0_39_72
*760 FILLER_0_3_136
*761 FILLER_0_3_142
*762 FILLER_0_3_2
*763 FILLER_0_3_206
*764 FILLER_0_3_212
*765 FILLER_0_3_276
*766 FILLER_0_3_282
*767 FILLER_0_3_346
*768 FILLER_0_3_348
*769 FILLER_0_3_66
*770 FILLER_0_3_72
*771 FILLER_0_40_101
*772 FILLER_0_40_107
*773 FILLER_0_40_171
*774 FILLER_0_40_177
*775 FILLER_0_40_2
*776 FILLER_0_40_241
*777 FILLER_0_40_247
*778 FILLER_0_40_311
*779 FILLER_0_40_317
*780 FILLER_0_40_34
*781 FILLER_0_40_37
*782 FILLER_0_41_136
*783 FILLER_0_41_142
*784 FILLER_0_41_2
*785 FILLER_0_41_206
*786 FILLER_0_41_212
*787 FILLER_0_41_276
*788 FILLER_0_41_282
*789 FILLER_0_41_346
*790 FILLER_0_41_348
*791 FILLER_0_41_66
*792 FILLER_0_41_72
*793 FILLER_0_42_101
*794 FILLER_0_42_107
*795 FILLER_0_42_165
*796 FILLER_0_42_173
*797 FILLER_0_42_177
*798 FILLER_0_42_2
*799 FILLER_0_42_241
*800 FILLER_0_42_247
*801 FILLER_0_42_311
*802 FILLER_0_42_317
*803 FILLER_0_42_34
*804 FILLER_0_42_37
*805 FILLER_0_43_136
*806 FILLER_0_43_142
*807 FILLER_0_43_144
*808 FILLER_0_43_171
*809 FILLER_0_43_179
*810 FILLER_0_43_2
*811 FILLER_0_43_207
*812 FILLER_0_43_209
*813 FILLER_0_43_212
*814 FILLER_0_43_276
*815 FILLER_0_43_282
*816 FILLER_0_43_346
*817 FILLER_0_43_348
*818 FILLER_0_43_66
*819 FILLER_0_43_72
*820 FILLER_0_44_104
*821 FILLER_0_44_138
*822 FILLER_0_44_142
*823 FILLER_0_44_172
*824 FILLER_0_44_176
*825 FILLER_0_44_2
*826 FILLER_0_44_206
*827 FILLER_0_44_210
*828 FILLER_0_44_237
*829 FILLER_0_44_240
*830 FILLER_0_44_274
*831 FILLER_0_44_308
*832 FILLER_0_44_342
*833 FILLER_0_44_346
*834 FILLER_0_44_348
*835 FILLER_0_44_36
*836 FILLER_0_44_70
*837 FILLER_0_4_101
*838 FILLER_0_4_107
*839 FILLER_0_4_171
*840 FILLER_0_4_177
*841 FILLER_0_4_2
*842 FILLER_0_4_241
*843 FILLER_0_4_247
*844 FILLER_0_4_311
*845 FILLER_0_4_317
*846 FILLER_0_4_34
*847 FILLER_0_4_37
*848 FILLER_0_5_136
*849 FILLER_0_5_142
*850 FILLER_0_5_2
*851 FILLER_0_5_206
*852 FILLER_0_5_212
*853 FILLER_0_5_276
*854 FILLER_0_5_282
*855 FILLER_0_5_346
*856 FILLER_0_5_348
*857 FILLER_0_5_66
*858 FILLER_0_5_72
*859 FILLER_0_6_101
*860 FILLER_0_6_107
*861 FILLER_0_6_171
*862 FILLER_0_6_177
*863 FILLER_0_6_2
*864 FILLER_0_6_241
*865 FILLER_0_6_247
*866 FILLER_0_6_311
*867 FILLER_0_6_317
*868 FILLER_0_6_34
*869 FILLER_0_6_37
*870 FILLER_0_7_136
*871 FILLER_0_7_142
*872 FILLER_0_7_2
*873 FILLER_0_7_206
*874 FILLER_0_7_212
*875 FILLER_0_7_276
*876 FILLER_0_7_282
*877 FILLER_0_7_346
*878 FILLER_0_7_348
*879 FILLER_0_7_66
*880 FILLER_0_7_72
*881 FILLER_0_8_101
*882 FILLER_0_8_107
*883 FILLER_0_8_171
*884 FILLER_0_8_177
*885 FILLER_0_8_2
*886 FILLER_0_8_241
*887 FILLER_0_8_247
*888 FILLER_0_8_311
*889 FILLER_0_8_317
*890 FILLER_0_8_34
*891 FILLER_0_8_37
*892 FILLER_0_9_136
*893 FILLER_0_9_142
*894 FILLER_0_9_2
*895 FILLER_0_9_206
*896 FILLER_0_9_212
*897 FILLER_0_9_276
*898 FILLER_0_9_282
*899 FILLER_0_9_346
*900 FILLER_0_9_348
*901 FILLER_0_9_66
*902 FILLER_0_9_72
*903 PHY_EDGE_ROW_0_Left_45
*904 PHY_EDGE_ROW_0_Right_0
*905 PHY_EDGE_ROW_10_Left_55
*906 PHY_EDGE_ROW_10_Right_10
*907 PHY_EDGE_ROW_11_Left_56
*908 PHY_EDGE_ROW_11_Right_11
*909 PHY_EDGE_ROW_12_Left_57
*910 PHY_EDGE_ROW_12_Right_12
*911 PHY_EDGE_ROW_13_Left_58
*912 PHY_EDGE_ROW_13_Right_13
*913 PHY_EDGE_ROW_14_Left_59
*914 PHY_EDGE_ROW_14_Right_14
*915 PHY_EDGE_ROW_15_Left_60
*916 PHY_EDGE_ROW_15_Right_15
*917 PHY_EDGE_ROW_16_Left_61
*918 PHY_EDGE_ROW_16_Right_16
*919 PHY_EDGE_ROW_17_Left_62
*920 PHY_EDGE_ROW_17_Right_17
*921 PHY_EDGE_ROW_18_Left_63
*922 PHY_EDGE_ROW_18_Right_18
*923 PHY_EDGE_ROW_19_Left_64
*924 PHY_EDGE_ROW_19_Right_19
*925 PHY_EDGE_ROW_1_Left_46
*926 PHY_EDGE_ROW_1_Right_1
*927 PHY_EDGE_ROW_20_Left_65
*928 PHY_EDGE_ROW_20_Right_20
*929 PHY_EDGE_ROW_21_Left_66
*930 PHY_EDGE_ROW_21_Right_21
*931 PHY_EDGE_ROW_22_Left_67
*932 PHY_EDGE_ROW_22_Right_22
*933 PHY_EDGE_ROW_23_Left_68
*934 PHY_EDGE_ROW_23_Right_23
*935 PHY_EDGE_ROW_24_Left_69
*936 PHY_EDGE_ROW_24_Right_24
*937 PHY_EDGE_ROW_25_Left_70
*938 PHY_EDGE_ROW_25_Right_25
*939 PHY_EDGE_ROW_26_Left_71
*940 PHY_EDGE_ROW_26_Right_26
*941 PHY_EDGE_ROW_27_Left_72
*942 PHY_EDGE_ROW_27_Right_27
*943 PHY_EDGE_ROW_28_Left_73
*944 PHY_EDGE_ROW_28_Right_28
*945 PHY_EDGE_ROW_29_Left_74
*946 PHY_EDGE_ROW_29_Right_29
*947 PHY_EDGE_ROW_2_Left_47
*948 PHY_EDGE_ROW_2_Right_2
*949 PHY_EDGE_ROW_30_Left_75
*950 PHY_EDGE_ROW_30_Right_30
*951 PHY_EDGE_ROW_31_Left_76
*952 PHY_EDGE_ROW_31_Right_31
*953 PHY_EDGE_ROW_32_Left_77
*954 PHY_EDGE_ROW_32_Right_32
*955 PHY_EDGE_ROW_33_Left_78
*956 PHY_EDGE_ROW_33_Right_33
*957 PHY_EDGE_ROW_34_Left_79
*958 PHY_EDGE_ROW_34_Right_34
*959 PHY_EDGE_ROW_35_Left_80
*960 PHY_EDGE_ROW_35_Right_35
*961 PHY_EDGE_ROW_36_Left_81
*962 PHY_EDGE_ROW_36_Right_36
*963 PHY_EDGE_ROW_37_Left_82
*964 PHY_EDGE_ROW_37_Right_37
*965 PHY_EDGE_ROW_38_Left_83
*966 PHY_EDGE_ROW_38_Right_38
*967 PHY_EDGE_ROW_39_Left_84
*968 PHY_EDGE_ROW_39_Right_39
*969 PHY_EDGE_ROW_3_Left_48
*970 PHY_EDGE_ROW_3_Right_3
*971 PHY_EDGE_ROW_40_Left_85
*972 PHY_EDGE_ROW_40_Right_40
*973 PHY_EDGE_ROW_41_Left_86
*974 PHY_EDGE_ROW_41_Right_41
*975 PHY_EDGE_ROW_42_Left_87
*976 PHY_EDGE_ROW_42_Right_42
*977 PHY_EDGE_ROW_43_Left_88
*978 PHY_EDGE_ROW_43_Right_43
*979 PHY_EDGE_ROW_44_Left_89
*980 PHY_EDGE_ROW_44_Right_44
*981 PHY_EDGE_ROW_4_Left_49
*982 PHY_EDGE_ROW_4_Right_4
*983 PHY_EDGE_ROW_5_Left_50
*984 PHY_EDGE_ROW_5_Right_5
*985 PHY_EDGE_ROW_6_Left_51
*986 PHY_EDGE_ROW_6_Right_6
*987 PHY_EDGE_ROW_7_Left_52
*988 PHY_EDGE_ROW_7_Right_7
*989 PHY_EDGE_ROW_8_Left_53
*990 PHY_EDGE_ROW_8_Right_8
*991 PHY_EDGE_ROW_9_Left_54
*992 PHY_EDGE_ROW_9_Right_9
*993 TAP_TAPCELL_ROW_0_90
*994 TAP_TAPCELL_ROW_0_91
*995 TAP_TAPCELL_ROW_0_92
*996 TAP_TAPCELL_ROW_0_93
*997 TAP_TAPCELL_ROW_0_94
*998 TAP_TAPCELL_ROW_0_95
*999 TAP_TAPCELL_ROW_0_96
*1000 TAP_TAPCELL_ROW_0_97
*1001 TAP_TAPCELL_ROW_0_98
*1002 TAP_TAPCELL_ROW_0_99
*1003 TAP_TAPCELL_ROW_10_140
*1004 TAP_TAPCELL_ROW_10_141
*1005 TAP_TAPCELL_ROW_10_142
*1006 TAP_TAPCELL_ROW_10_143
*1007 TAP_TAPCELL_ROW_10_144
*1008 TAP_TAPCELL_ROW_11_145
*1009 TAP_TAPCELL_ROW_11_146
*1010 TAP_TAPCELL_ROW_11_147
*1011 TAP_TAPCELL_ROW_11_148
*1012 TAP_TAPCELL_ROW_12_149
*1013 TAP_TAPCELL_ROW_12_150
*1014 TAP_TAPCELL_ROW_12_151
*1015 TAP_TAPCELL_ROW_12_152
*1016 TAP_TAPCELL_ROW_12_153
*1017 TAP_TAPCELL_ROW_13_154
*1018 TAP_TAPCELL_ROW_13_155
*1019 TAP_TAPCELL_ROW_13_156
*1020 TAP_TAPCELL_ROW_13_157
*1021 TAP_TAPCELL_ROW_14_158
*1022 TAP_TAPCELL_ROW_14_159
*1023 TAP_TAPCELL_ROW_14_160
*1024 TAP_TAPCELL_ROW_14_161
*1025 TAP_TAPCELL_ROW_14_162
*1026 TAP_TAPCELL_ROW_15_163
*1027 TAP_TAPCELL_ROW_15_164
*1028 TAP_TAPCELL_ROW_15_165
*1029 TAP_TAPCELL_ROW_15_166
*1030 TAP_TAPCELL_ROW_16_167
*1031 TAP_TAPCELL_ROW_16_168
*1032 TAP_TAPCELL_ROW_16_169
*1033 TAP_TAPCELL_ROW_16_170
*1034 TAP_TAPCELL_ROW_16_171
*1035 TAP_TAPCELL_ROW_17_172
*1036 TAP_TAPCELL_ROW_17_173
*1037 TAP_TAPCELL_ROW_17_174
*1038 TAP_TAPCELL_ROW_17_175
*1039 TAP_TAPCELL_ROW_18_176
*1040 TAP_TAPCELL_ROW_18_177
*1041 TAP_TAPCELL_ROW_18_178
*1042 TAP_TAPCELL_ROW_18_179
*1043 TAP_TAPCELL_ROW_18_180
*1044 TAP_TAPCELL_ROW_19_181
*1045 TAP_TAPCELL_ROW_19_182
*1046 TAP_TAPCELL_ROW_19_183
*1047 TAP_TAPCELL_ROW_19_184
*1048 TAP_TAPCELL_ROW_1_100
*1049 TAP_TAPCELL_ROW_1_101
*1050 TAP_TAPCELL_ROW_1_102
*1051 TAP_TAPCELL_ROW_1_103
*1052 TAP_TAPCELL_ROW_20_185
*1053 TAP_TAPCELL_ROW_20_186
*1054 TAP_TAPCELL_ROW_20_187
*1055 TAP_TAPCELL_ROW_20_188
*1056 TAP_TAPCELL_ROW_20_189
*1057 TAP_TAPCELL_ROW_21_190
*1058 TAP_TAPCELL_ROW_21_191
*1059 TAP_TAPCELL_ROW_21_192
*1060 TAP_TAPCELL_ROW_21_193
*1061 TAP_TAPCELL_ROW_22_194
*1062 TAP_TAPCELL_ROW_22_195
*1063 TAP_TAPCELL_ROW_22_196
*1064 TAP_TAPCELL_ROW_22_197
*1065 TAP_TAPCELL_ROW_22_198
*1066 TAP_TAPCELL_ROW_23_199
*1067 TAP_TAPCELL_ROW_23_200
*1068 TAP_TAPCELL_ROW_23_201
*1069 TAP_TAPCELL_ROW_23_202
*1070 TAP_TAPCELL_ROW_24_203
*1071 TAP_TAPCELL_ROW_24_204
*1072 TAP_TAPCELL_ROW_24_205
*1073 TAP_TAPCELL_ROW_24_206
*1074 TAP_TAPCELL_ROW_24_207
*1075 TAP_TAPCELL_ROW_25_208
*1076 TAP_TAPCELL_ROW_25_209
*1077 TAP_TAPCELL_ROW_25_210
*1078 TAP_TAPCELL_ROW_25_211
*1079 TAP_TAPCELL_ROW_26_212
*1080 TAP_TAPCELL_ROW_26_213
*1081 TAP_TAPCELL_ROW_26_214
*1082 TAP_TAPCELL_ROW_26_215
*1083 TAP_TAPCELL_ROW_26_216
*1084 TAP_TAPCELL_ROW_27_217
*1085 TAP_TAPCELL_ROW_27_218
*1086 TAP_TAPCELL_ROW_27_219
*1087 TAP_TAPCELL_ROW_27_220
*1088 TAP_TAPCELL_ROW_28_221
*1089 TAP_TAPCELL_ROW_28_222
*1090 TAP_TAPCELL_ROW_28_223
*1091 TAP_TAPCELL_ROW_28_224
*1092 TAP_TAPCELL_ROW_28_225
*1093 TAP_TAPCELL_ROW_29_226
*1094 TAP_TAPCELL_ROW_29_227
*1095 TAP_TAPCELL_ROW_29_228
*1096 TAP_TAPCELL_ROW_29_229
*1097 TAP_TAPCELL_ROW_2_104
*1098 TAP_TAPCELL_ROW_2_105
*1099 TAP_TAPCELL_ROW_2_106
*1100 TAP_TAPCELL_ROW_2_107
*1101 TAP_TAPCELL_ROW_2_108
*1102 TAP_TAPCELL_ROW_30_230
*1103 TAP_TAPCELL_ROW_30_231
*1104 TAP_TAPCELL_ROW_30_232
*1105 TAP_TAPCELL_ROW_30_233
*1106 TAP_TAPCELL_ROW_30_234
*1107 TAP_TAPCELL_ROW_31_235
*1108 TAP_TAPCELL_ROW_31_236
*1109 TAP_TAPCELL_ROW_31_237
*1110 TAP_TAPCELL_ROW_31_238
*1111 TAP_TAPCELL_ROW_32_239
*1112 TAP_TAPCELL_ROW_32_240
*1113 TAP_TAPCELL_ROW_32_241
*1114 TAP_TAPCELL_ROW_32_242
*1115 TAP_TAPCELL_ROW_32_243
*1116 TAP_TAPCELL_ROW_33_244
*1117 TAP_TAPCELL_ROW_33_245
*1118 TAP_TAPCELL_ROW_33_246
*1119 TAP_TAPCELL_ROW_33_247
*1120 TAP_TAPCELL_ROW_34_248
*1121 TAP_TAPCELL_ROW_34_249
*1122 TAP_TAPCELL_ROW_34_250
*1123 TAP_TAPCELL_ROW_34_251
*1124 TAP_TAPCELL_ROW_34_252
*1125 TAP_TAPCELL_ROW_35_253
*1126 TAP_TAPCELL_ROW_35_254
*1127 TAP_TAPCELL_ROW_35_255
*1128 TAP_TAPCELL_ROW_35_256
*1129 TAP_TAPCELL_ROW_36_257
*1130 TAP_TAPCELL_ROW_36_258
*1131 TAP_TAPCELL_ROW_36_259
*1132 TAP_TAPCELL_ROW_36_260
*1133 TAP_TAPCELL_ROW_36_261
*1134 TAP_TAPCELL_ROW_37_262
*1135 TAP_TAPCELL_ROW_37_263
*1136 TAP_TAPCELL_ROW_37_264
*1137 TAP_TAPCELL_ROW_37_265
*1138 TAP_TAPCELL_ROW_38_266
*1139 TAP_TAPCELL_ROW_38_267
*1140 TAP_TAPCELL_ROW_38_268
*1141 TAP_TAPCELL_ROW_38_269
*1142 TAP_TAPCELL_ROW_38_270
*1143 TAP_TAPCELL_ROW_39_271
*1144 TAP_TAPCELL_ROW_39_272
*1145 TAP_TAPCELL_ROW_39_273
*1146 TAP_TAPCELL_ROW_39_274
*1147 TAP_TAPCELL_ROW_3_109
*1148 TAP_TAPCELL_ROW_3_110
*1149 TAP_TAPCELL_ROW_3_111
*1150 TAP_TAPCELL_ROW_3_112
*1151 TAP_TAPCELL_ROW_40_275
*1152 TAP_TAPCELL_ROW_40_276
*1153 TAP_TAPCELL_ROW_40_277
*1154 TAP_TAPCELL_ROW_40_278
*1155 TAP_TAPCELL_ROW_40_279
*1156 TAP_TAPCELL_ROW_41_280
*1157 TAP_TAPCELL_ROW_41_281
*1158 TAP_TAPCELL_ROW_41_282
*1159 TAP_TAPCELL_ROW_41_283
*1160 TAP_TAPCELL_ROW_42_284
*1161 TAP_TAPCELL_ROW_42_285
*1162 TAP_TAPCELL_ROW_42_286
*1163 TAP_TAPCELL_ROW_42_287
*1164 TAP_TAPCELL_ROW_42_288
*1165 TAP_TAPCELL_ROW_43_289
*1166 TAP_TAPCELL_ROW_43_290
*1167 TAP_TAPCELL_ROW_43_291
*1168 TAP_TAPCELL_ROW_43_292
*1169 TAP_TAPCELL_ROW_44_293
*1170 TAP_TAPCELL_ROW_44_294
*1171 TAP_TAPCELL_ROW_44_295
*1172 TAP_TAPCELL_ROW_44_296
*1173 TAP_TAPCELL_ROW_44_297
*1174 TAP_TAPCELL_ROW_44_298
*1175 TAP_TAPCELL_ROW_44_299
*1176 TAP_TAPCELL_ROW_44_300
*1177 TAP_TAPCELL_ROW_44_301
*1178 TAP_TAPCELL_ROW_44_302
*1179 TAP_TAPCELL_ROW_4_113
*1180 TAP_TAPCELL_ROW_4_114
*1181 TAP_TAPCELL_ROW_4_115
*1182 TAP_TAPCELL_ROW_4_116
*1183 TAP_TAPCELL_ROW_4_117
*1184 TAP_TAPCELL_ROW_5_118
*1185 TAP_TAPCELL_ROW_5_119
*1186 TAP_TAPCELL_ROW_5_120
*1187 TAP_TAPCELL_ROW_5_121
*1188 TAP_TAPCELL_ROW_6_122
*1189 TAP_TAPCELL_ROW_6_123
*1190 TAP_TAPCELL_ROW_6_124
*1191 TAP_TAPCELL_ROW_6_125
*1192 TAP_TAPCELL_ROW_6_126
*1193 TAP_TAPCELL_ROW_7_127
*1194 TAP_TAPCELL_ROW_7_128
*1195 TAP_TAPCELL_ROW_7_129
*1196 TAP_TAPCELL_ROW_7_130
*1197 TAP_TAPCELL_ROW_8_131
*1198 TAP_TAPCELL_ROW_8_132
*1199 TAP_TAPCELL_ROW_8_133
*1200 TAP_TAPCELL_ROW_8_134
*1201 TAP_TAPCELL_ROW_8_135
*1202 TAP_TAPCELL_ROW_9_136
*1203 TAP_TAPCELL_ROW_9_137
*1204 TAP_TAPCELL_ROW_9_138
*1205 TAP_TAPCELL_ROW_9_139
*1206 _104_
*1207 _105_
*1208 _106_
*1209 _107_
*1210 _108_
*1211 _109_
*1212 _110_
*1213 _111_
*1214 _112_
*1215 _113_
*1216 _114_
*1217 _115_
*1218 _116_
*1219 _117_
*1220 _118_
*1221 _119_
*1222 _120_
*1223 _121_
*1224 _122_
*1225 _123_
*1226 _124_
*1227 _125_
*1228 _126_
*1229 _127_
*1230 _128_
*1231 _129_
*1232 _130_
*1233 _131_
*1234 _132_
*1235 _133_
*1236 _134_
*1237 _135_
*1238 _136_
*1239 _137_
*1240 _138_
*1241 _139_
*1242 _140_
*1243 _141_
*1244 _142_
*1245 _143_
*1246 _144_
*1247 _145_
*1248 _146_
*1249 _147_
*1250 _148_
*1251 _149_
*1252 _150_
*1253 _151_
*1254 _152_
*1255 _153_
*1256 _154_
*1257 _155_
*1258 _156_
*1259 _157_
*1260 _158_
*1261 _159_
*1262 _160_
*1263 _161_
*1264 _162_
*1265 _163_
*1266 _164_
*1267 _165_
*1268 _166_
*1269 _167_
*1270 _168_
*1271 _169_
*1272 _170_
*1273 _171_
*1274 _172_
*1275 _173_
*1276 _174_
*1277 _175_
*1278 _176_
*1279 _177_
*1280 _178_
*1281 _179_
*1282 _180_
*1283 _181_
*1284 _182_
*1285 _183_
*1286 _184_
*1287 _185_
*1288 _186_
*1289 _187_
*1290 _188_
*1291 _189_
*1292 _190_
*1293 _191_
*1294 _192_
*1295 _193_
*1296 _194_
*1297 _195_
*1298 _196_
*1299 _197_
*1300 _198_
*1301 _199_
*1302 _200_
*1303 _201_
*1304 _202_
*1305 _203_
*1306 _204_
*1307 _205_
*1308 _206_
*1309 _207_
*1310 _208_
*1311 _209_
*1312 _210_
*1313 _211_
*1314 _212_
*1315 _213_
*1316 _214_
*1317 _215_
*1318 _216_
*1319 _217_
*1320 _218_
*1321 _219_
*1322 _220_
*1323 _221_
*1324 _222_
*1325 _223_
*1326 _224_
*1327 _225_
*1328 _226_
*1329 _227_
*1330 _228_
*1331 _229_
*1332 _230_
*1333 _231_
*1334 _232_
*1335 _233_
*1336 _234_
*1337 _235_
*1338 _236_
*1339 _237_
*1340 clkbuf_0_clk
*1341 clkbuf_1_0__f_clk
*1342 clkbuf_1_1__f_clk
*1343 output1
*1344 output10
*1345 output11
*1346 output12
*1347 output13
*1348 output14
*1349 output15
*1350 output16
*1351 output17
*1352 output18
*1353 output19
*1354 output2
*1355 output20
*1356 output21
*1357 output22
*1358 output23
*1359 output24
*1360 output25
*1361 output26
*1362 output3
*1363 output4
*1364 output5
*1365 output6
*1366 output7
*1367 output8
*1368 output9

*PORTS
clk I
segm[0] O
segm[10] O
segm[11] O
segm[12] O
segm[13] O
segm[1] O
segm[2] O
segm[3] O
segm[4] O
segm[5] O
segm[6] O
segm[7] O
segm[8] O
segm[9] O
sel[0] O
sel[10] O
sel[11] O
sel[1] O
sel[2] O
sel[3] O
sel[4] O
sel[5] O
sel[6] O
sel[7] O
sel[8] O
sel[9] O

*D_NET *1 0.013015
*CONN
*P clk I
*I *1340:I I *D gf180mcu_fd_sc_mcu7t5v0__clkbuf_16
*I *195:I I *D gf180mcu_fd_sc_mcu7t5v0__antenna
*CAP
1 clk 0.00456809
2 *1340:I 2.33828e-06
3 *195:I 0
4 *1:13 0.00457043
5 *1340:I *1210:A1 0.000154129
6 *1340:I *98:8 0.000137004
7 *1:13 *1210:A1 1.71254e-05
8 *1:13 *1211:A2 6.05852e-05
9 *1:13 *1313:CLK 0.00012135
10 *1:13 *1314:D 0.00090332
11 *1:13 *98:8 0.000304291
12 *1:13 *105:19 0
13 *1:13 *108:19 0
14 *1:13 *122:8 8.24404e-05
15 *1:13 *136:46 0.000572302
16 *1:13 *137:27 0.000791913
17 *1:13 *137:40 0.000476799
18 *1:13 *138:10 0.000252915
*RES
1 clk *1:13 48.285 
2 *1:13 *195:I 9 
3 *1:13 *1340:I 9.81 
*END

*D_NET *2 0.0015342
*CONN
*P segm[0] O
*I *1343:Z O *D gf180mcu_fd_sc_mcu7t5v0__buf_8
*CAP
1 segm[0] 0.000697727
2 *1343:Z 0.000697727
3 segm[0] segm[3] 0.00013875
*RES
1 *1343:Z segm[0] 10.215 
*END

*D_NET *3 0.000609443
*CONN
*P segm[10] O
*I *1354:Z O *D gf180mcu_fd_sc_mcu7t5v0__buf_8
*CAP
1 segm[10] 0.000271411
2 *1354:Z 0.000271411
3 segm[10] segm[12] 6.66205e-05
*RES
1 *1354:Z segm[10] 11.295 
*END

*D_NET *4 0.000994669
*CONN
*P segm[11] O
*I *1362:Z O *D gf180mcu_fd_sc_mcu7t5v0__buf_8
*CAP
1 segm[11] 0.000464022
2 *1362:Z 0.000464022
3 segm[11] sel[4] 6.66239e-05
*RES
1 *1362:Z segm[11] 12.555 
*END

*D_NET *5 0.000611544
*CONN
*P segm[12] O
*I *1363:Z O *D gf180mcu_fd_sc_mcu7t5v0__buf_8
*CAP
1 segm[12] 0.000272462
2 *1363:Z 0.000272462
3 segm[10] segm[12] 6.66205e-05
*RES
1 *1363:Z segm[12] 11.475 
*END

*D_NET *6 0.00241779
*CONN
*P segm[13] O
*I *1364:Z O *D gf180mcu_fd_sc_mcu7t5v0__buf_8
*CAP
1 segm[13] 0.00120889
2 *1364:Z 0.00120889