*SPEF "ieee 1481-1999"
*DESIGN "ita18"
*DATE "11:11:11 Fri 11 11, 1111"
*VENDOR "OpenRCX"
*PROGRAM "Parallel Extraction"
*VERSION "1.0"
*DESIGN_FLOW "NAME_SCOPE LOCAL" "PIN_CAP NONE"
*DIVIDER /
*DELIMITER :
*BUS_DELIMITER []
*T_UNIT 1 NS
*C_UNIT 1 PF
*R_UNIT 1 OHM
*L_UNIT 1 HENRY

*NAME_MAP
*1 clk
*2 segm[0]
*3 segm[10]
*4 segm[11]
*5 segm[12]
*6 segm[13]
*7 segm[1]
*8 segm[2]
*9 segm[3]
*10 segm[4]
*11 segm[5]
*12 segm[6]
*13 segm[7]
*14 segm[8]
*15 segm[9]
*16 sel[0]
*17 sel[10]
*18 sel[11]
*19 sel[1]
*20 sel[2]
*21 sel[3]
*22 sel[4]
*23 sel[5]
*24 sel[6]
*25 sel[7]
*26 sel[8]
*27 sel[9]
*30 _000_
*31 _001_
*32 _002_
*33 _003_
*34 _004_
*35 _005_
*36 _006_
*37 _007_
*38 _008_
*39 _009_
*40 _010_
*41 _011_
*42 _012_
*43 _013_
*44 _014_
*45 _015_
*46 _016_
*47 _017_
*48 _018_
*49 _019_
*50 _020_
*51 _021_
*52 _022_
*53 _023_
*54 _024_
*55 _025_
*56 _026_
*57 _027_
*58 _028_
*59 _029_
*60 _030_
*61 _031_
*62 _032_
*63 _033_
*64 _034_
*65 _035_
*66 _036_
*67 _037_
*68 _038_
*69 _039_
*70 _040_
*71 _041_
*72 _042_
*73 _043_
*74 _044_
*75 _045_
*76 _046_
*77 _047_
*78 _048_
*79 _049_
*80 _050_
*81 _051_
*82 _052_
*83 _053_
*84 _054_
*85 _055_
*86 _056_
*87 _057_
*88 _058_
*89 _059_
*90 _060_
*91 _061_
*92 _062_
*93 _063_
*94 _064_
*95 _065_
*96 _066_
*97 _067_
*98 _068_
*99 _069_
*100 _070_
*101 _071_
*102 _072_
*103 _073_
*104 _074_
*105 _075_
*106 _076_
*107 _077_
*108 _078_
*109 _079_
*110 _080_
*111 _081_
*112 _082_
*113 _083_
*114 _084_
*115 _085_
*116 _086_
*117 _087_
*118 _088_
*119 _089_
*120 _090_
*121 _091_
*122 _092_
*123 _093_
*124 _094_
*125 _095_
*126 _096_
*127 _097_
*128 _098_
*129 clknet_0_clk
*130 clknet_1_0__leaf_clk
*131 clknet_1_1__leaf_clk
*132 dut18\.count\[0\]
*133 dut18\.count\[1\]
*134 dut18\.count\[2\]
*135 dut18\.count\[3\]
*136 net1
*137 net10
*138 net11
*139 net12
*140 net13
*141 net14
*142 net15
*143 net16
*144 net17
*145 net18
*146 net19
*147 net2
*148 net20
*149 net21
*150 net22
*151 net23
*152 net24
*153 net25
*154 net26
*155 net3
*156 net4
*157 net5
*158 net6
*159 net7
*160 net8
*161 net9
*162 ANTENNA__117__A2
*163 ANTENNA__169__A1
*164 ANTENNA__191__A1
*165 ANTENNA__194__A1
*166 ANTENNA__198__CLK
*167 ANTENNA__199__CLK
*168 ANTENNA__200__CLK
*169 ANTENNA__201__CLK
*170 ANTENNA__202__CLK
*171 ANTENNA__203__CLK
*172 ANTENNA__204__CLK
*173 ANTENNA__205__CLK
*174 ANTENNA__206__CLK
*175 ANTENNA__207__CLK
*176 ANTENNA__208__CLK
*177 ANTENNA__209__CLK
*178 ANTENNA__210__CLK
*179 ANTENNA__211__CLK
*180 ANTENNA__212__CLK
*181 ANTENNA__213__CLK
*182 ANTENNA__214__CLK
*183 ANTENNA__215__CLK
*184 ANTENNA__216__CLK
*185 ANTENNA__217__CLK
*186 ANTENNA__218__CLK
*187 ANTENNA__219__CLK
*188 ANTENNA__220__CLK
*189 ANTENNA__221__CLK
*190 ANTENNA_clkbuf_0_clk_I
*191 FILLER_0_0_104
*192 FILLER_0_0_138
*193 FILLER_0_0_142
*194 FILLER_0_0_172
*195 FILLER_0_0_174
*196 FILLER_0_0_2
*197 FILLER_0_0_201
*198 FILLER_0_0_203
*199 FILLER_0_0_206
*200 FILLER_0_0_240
*201 FILLER_0_0_274
*202 FILLER_0_0_308
*203 FILLER_0_0_342
*204 FILLER_0_0_346
*205 FILLER_0_0_348
*206 FILLER_0_0_36
*207 FILLER_0_0_70
*208 FILLER_0_10_101
*209 FILLER_0_10_107
*210 FILLER_0_10_171
*211 FILLER_0_10_177
*212 FILLER_0_10_2
*213 FILLER_0_10_241
*214 FILLER_0_10_247
*215 FILLER_0_10_311
*216 FILLER_0_10_317
*217 FILLER_0_10_34
*218 FILLER_0_10_37
*219 FILLER_0_11_136
*220 FILLER_0_11_142
*221 FILLER_0_11_2
*222 FILLER_0_11_206
*223 FILLER_0_11_212
*224 FILLER_0_11_276
*225 FILLER_0_11_282
*226 FILLER_0_11_346
*227 FILLER_0_11_348
*228 FILLER_0_11_66
*229 FILLER_0_11_72
*230 FILLER_0_12_101
*231 FILLER_0_12_107
*232 FILLER_0_12_123
*233 FILLER_0_12_127
*234 FILLER_0_12_157
*235 FILLER_0_12_161
*236 FILLER_0_12_169
*237 FILLER_0_12_173
*238 FILLER_0_12_177
*239 FILLER_0_12_2
*240 FILLER_0_12_241
*241 FILLER_0_12_247
*242 FILLER_0_12_311
*243 FILLER_0_12_317
*244 FILLER_0_12_34
*245 FILLER_0_12_37
*246 FILLER_0_13_136
*247 FILLER_0_13_142
*248 FILLER_0_13_2
*249 FILLER_0_13_205
*250 FILLER_0_13_209
*251 FILLER_0_13_212
*252 FILLER_0_13_276
*253 FILLER_0_13_282
*254 FILLER_0_13_346
*255 FILLER_0_13_348
*256 FILLER_0_13_66
*257 FILLER_0_13_72
*258 FILLER_0_14_101
*259 FILLER_0_14_113
*260 FILLER_0_14_117
*261 FILLER_0_14_133
*262 FILLER_0_14_141
*263 FILLER_0_14_153
*264 FILLER_0_14_169
*265 FILLER_0_14_173
*266 FILLER_0_14_177
*267 FILLER_0_14_2
*268 FILLER_0_14_226
*269 FILLER_0_14_230
*270 FILLER_0_14_238
*271 FILLER_0_14_242
*272 FILLER_0_14_244
*273 FILLER_0_14_247
*274 FILLER_0_14_311
*275 FILLER_0_14_317
*276 FILLER_0_14_34
*277 FILLER_0_14_37
*278 FILLER_0_15_142
*279 FILLER_0_15_146
*280 FILLER_0_15_154
*281 FILLER_0_15_158
*282 FILLER_0_15_160
*283 FILLER_0_15_174
*284 FILLER_0_15_182
*285 FILLER_0_15_184
*286 FILLER_0_15_191
*287 FILLER_0_15_193
*288 FILLER_0_15_206
*289 FILLER_0_15_212
*290 FILLER_0_15_276
*291 FILLER_0_15_28
*292 FILLER_0_15_282
*293 FILLER_0_15_346
*294 FILLER_0_15_348
*295 FILLER_0_15_60
*296 FILLER_0_15_68
*297 FILLER_0_15_72
*298 FILLER_0_15_80
*299 FILLER_0_16_101
*300 FILLER_0_16_117
*301 FILLER_0_16_121
*302 FILLER_0_16_129
*303 FILLER_0_16_145
*304 FILLER_0_16_149
*305 FILLER_0_16_174
*306 FILLER_0_16_177
*307 FILLER_0_16_195
*308 FILLER_0_16_199
*309 FILLER_0_16_201
*310 FILLER_0_16_208
*311 FILLER_0_16_247
*312 FILLER_0_16_251
*313 FILLER_0_16_28
*314 FILLER_0_16_317
*315 FILLER_0_16_32
*316 FILLER_0_16_34
*317 FILLER_0_16_37
*318 FILLER_0_17_104
*319 FILLER_0_17_108
*320 FILLER_0_17_110
*321 FILLER_0_17_121
*322 FILLER_0_17_137
*323 FILLER_0_17_139
*324 FILLER_0_17_148
*325 FILLER_0_17_164
*326 FILLER_0_17_182
*327 FILLER_0_17_192
*328 FILLER_0_17_208
*329 FILLER_0_17_212
*330 FILLER_0_17_220
*331 FILLER_0_17_238
*332 FILLER_0_17_270
*333 FILLER_0_17_278
*334 FILLER_0_17_28
*335 FILLER_0_17_282
*336 FILLER_0_17_314
*337 FILLER_0_17_322
*338 FILLER_0_17_60
*339 FILLER_0_17_68
*340 FILLER_0_17_72
*341 FILLER_0_18_107
*342 FILLER_0_18_111
*343 FILLER_0_18_113
*344 FILLER_0_18_116
*345 FILLER_0_18_118
*346 FILLER_0_18_139
*347 FILLER_0_18_143
*348 FILLER_0_18_154
*349 FILLER_0_18_171
*350 FILLER_0_18_183
*351 FILLER_0_18_191
*352 FILLER_0_18_195
*353 FILLER_0_18_2
*354 FILLER_0_18_201
*355 FILLER_0_18_212
*356 FILLER_0_18_247
*357 FILLER_0_18_251
*358 FILLER_0_18_317
*359 FILLER_0_18_321
*360 FILLER_0_18_34
*361 FILLER_0_18_37
*362 FILLER_0_18_69
*363 FILLER_0_18_73
*364 FILLER_0_18_75
*365 FILLER_0_19_114
*366 FILLER_0_19_116
*367 FILLER_0_19_128
*368 FILLER_0_19_135
*369 FILLER_0_19_139
*370 FILLER_0_19_142
*371 FILLER_0_19_2
*372 FILLER_0_19_200
*373 FILLER_0_19_212
*374 FILLER_0_19_216
*375 FILLER_0_19_235
*376 FILLER_0_19_267
*377 FILLER_0_19_275
*378 FILLER_0_19_279
*379 FILLER_0_19_282
*380 FILLER_0_19_346
*381 FILLER_0_19_348
*382 FILLER_0_19_66
*383 FILLER_0_19_72
*384 FILLER_0_19_80
*385 FILLER_0_19_84
*386 FILLER_0_1_136
*387 FILLER_0_1_142
*388 FILLER_0_1_2
*389 FILLER_0_1_206
*390 FILLER_0_1_212
*391 FILLER_0_1_276
*392 FILLER_0_1_282
*393 FILLER_0_1_346
*394 FILLER_0_1_348
*395 FILLER_0_1_66
*396 FILLER_0_1_72
*397 FILLER_0_20_101
*398 FILLER_0_20_107
*399 FILLER_0_20_111
*400 FILLER_0_20_134
*401 FILLER_0_20_183
*402 FILLER_0_20_185
*403 FILLER_0_20_194
*404 FILLER_0_20_235
*405 FILLER_0_20_239
*406 FILLER_0_20_243
*407 FILLER_0_20_247
*408 FILLER_0_20_28
*409 FILLER_0_20_311
*410 FILLER_0_20_317
*411 FILLER_0_20_32
*412 FILLER_0_20_34
*413 FILLER_0_20_37
*414 FILLER_0_21_104
*415 FILLER_0_21_120
*416 FILLER_0_21_124
*417 FILLER_0_21_137
*418 FILLER_0_21_139
*419 FILLER_0_21_142
*420 FILLER_0_21_144
*421 FILLER_0_21_2
*422 FILLER_0_21_206
*423 FILLER_0_21_212
*424 FILLER_0_21_249
*425 FILLER_0_21_253
*426 FILLER_0_21_269
*427 FILLER_0_21_277
*428 FILLER_0_21_279
*429 FILLER_0_21_282
*430 FILLER_0_21_314
*431 FILLER_0_21_322
*432 FILLER_0_21_66
*433 FILLER_0_21_72
*434 FILLER_0_22_101
*435 FILLER_0_22_107
*436 FILLER_0_22_123
*437 FILLER_0_22_174
*438 FILLER_0_22_182
*439 FILLER_0_22_186
*440 FILLER_0_22_188
*441 FILLER_0_22_2
*442 FILLER_0_22_239
*443 FILLER_0_22_243
*444 FILLER_0_22_247
*445 FILLER_0_22_311
*446 FILLER_0_22_317
*447 FILLER_0_22_34
*448 FILLER_0_22_37
*449 FILLER_0_23_104
*450 FILLER_0_23_112
*451 FILLER_0_23_116
*452 FILLER_0_23_118
*453 FILLER_0_23_130
*454 FILLER_0_23_138
*455 FILLER_0_23_142
*456 FILLER_0_23_146
*457 FILLER_0_23_148
*458 FILLER_0_23_168
*459 FILLER_0_23_189
*460 FILLER_0_23_2
*461 FILLER_0_23_208
*462 FILLER_0_23_212
*463 FILLER_0_23_276
*464 FILLER_0_23_282
*465 FILLER_0_23_314
*466 FILLER_0_23_322
*467 FILLER_0_23_66
*468 FILLER_0_23_72
*469 FILLER_0_24_107
*470 FILLER_0_24_111
*471 FILLER_0_24_121
*472 FILLER_0_24_125
*473 FILLER_0_24_148
*474 FILLER_0_24_156
*475 FILLER_0_24_158
*476 FILLER_0_24_168
*477 FILLER_0_24_172
*478 FILLER_0_24_174
*479 FILLER_0_24_183
*480 FILLER_0_24_191
*481 FILLER_0_24_224
*482 FILLER_0_24_228
*483 FILLER_0_24_244
*484 FILLER_0_24_247
*485 FILLER_0_24_28
*486 FILLER_0_24_311
*487 FILLER_0_24_317
*488 FILLER_0_24_32
*489 FILLER_0_24_34
*490 FILLER_0_24_37
*491 FILLER_0_24_69
*492 FILLER_0_24_73
*493 FILLER_0_24_75
*494 FILLER_0_25_104
*495 FILLER_0_25_108
*496 FILLER_0_25_138
*497 FILLER_0_25_142
*498 FILLER_0_25_146
*499 FILLER_0_25_154
*500 FILLER_0_25_186
*501 FILLER_0_25_190
*502 FILLER_0_25_194
*503 FILLER_0_25_207
*504 FILLER_0_25_209
*505 FILLER_0_25_222
*506 FILLER_0_25_254
*507 FILLER_0_25_270
*508 FILLER_0_25_278
*509 FILLER_0_25_28
*510 FILLER_0_25_282
*511 FILLER_0_25_314
*512 FILLER_0_25_322
*513 FILLER_0_25_60
*514 FILLER_0_25_68
*515 FILLER_0_25_72
*516 FILLER_0_26_101
*517 FILLER_0_26_107
*518 FILLER_0_26_111
*519 FILLER_0_26_113
*520 FILLER_0_26_119
*521 FILLER_0_26_123
*522 FILLER_0_26_140
*523 FILLER_0_26_144
*524 FILLER_0_26_167
*525 FILLER_0_26_183
*526 FILLER_0_26_191
*527 FILLER_0_26_193
*528 FILLER_0_26_223
*529 FILLER_0_26_227
*530 FILLER_0_26_243
*531 FILLER_0_26_247
*532 FILLER_0_26_28
*533 FILLER_0_26_311
*534 FILLER_0_26_317
*535 FILLER_0_26_32
*536 FILLER_0_26_321
*537 FILLER_0_26_34
*538 FILLER_0_26_37
*539 FILLER_0_27_114
*540 FILLER_0_27_118
*541 FILLER_0_27_134
*542 FILLER_0_27_138
*543 FILLER_0_27_142
*544 FILLER_0_27_150
*545 FILLER_0_27_166
*546 FILLER_0_27_170
*547 FILLER_0_27_178
*548 FILLER_0_27_2
*549 FILLER_0_27_212
*550 FILLER_0_27_276
*551 FILLER_0_27_282
*552 FILLER_0_27_346
*553 FILLER_0_27_348
*554 FILLER_0_27_66
*555 FILLER_0_27_72
*556 FILLER_0_27_80
*557 FILLER_0_27_84
*558 FILLER_0_28_101
*559 FILLER_0_28_107
*560 FILLER_0_28_111
*561 FILLER_0_28_125
*562 FILLER_0_28_131
*563 FILLER_0_28_135
*564 FILLER_0_28_151
*565 FILLER_0_28_159
*566 FILLER_0_28_163
*567 FILLER_0_28_170
*568 FILLER_0_28_174
*569 FILLER_0_28_177
*570 FILLER_0_28_2
*571 FILLER_0_28_241
*572 FILLER_0_28_247
*573 FILLER_0_28_311
*574 FILLER_0_28_317
*575 FILLER_0_28_34
*576 FILLER_0_28_37
*577 FILLER_0_29_100
*578 FILLER_0_29_102
*579 FILLER_0_29_139
*580 FILLER_0_29_142
*581 FILLER_0_29_146
*582 FILLER_0_29_150
*583 FILLER_0_29_152
*584 FILLER_0_29_183
*585 FILLER_0_29_193
*586 FILLER_0_29_2
*587 FILLER_0_29_202
*588 FILLER_0_29_218
*589 FILLER_0_29_250
*590 FILLER_0_29_266
*591 FILLER_0_29_274
*592 FILLER_0_29_278
*593 FILLER_0_29_282
*594 FILLER_0_29_346
*595 FILLER_0_29_348
*596 FILLER_0_29_66
*597 FILLER_0_29_72
*598 FILLER_0_29_88
*599 FILLER_0_29_96
*600 FILLER_0_2_101
*601 FILLER_0_2_107
*602 FILLER_0_2_171
*603 FILLER_0_2_177
*604 FILLER_0_2_2
*605 FILLER_0_2_241
*606 FILLER_0_2_247
*607 FILLER_0_2_311
*608 FILLER_0_2_317
*609 FILLER_0_2_34
*610 FILLER_0_2_37
*611 FILLER_0_30_101
*612 FILLER_0_30_107
*613 FILLER_0_30_111
*614 FILLER_0_30_113
*615 FILLER_0_30_143
*616 FILLER_0_30_173
*617 FILLER_0_30_182
*618 FILLER_0_30_215
*619 FILLER_0_30_219
*620 FILLER_0_30_235
*621 FILLER_0_30_243
*622 FILLER_0_30_247
*623 FILLER_0_30_28
*624 FILLER_0_30_311
*625 FILLER_0_30_317
*626 FILLER_0_30_32
*627 FILLER_0_30_34
*628 FILLER_0_30_37
*629 FILLER_0_31_116
*630 FILLER_0_31_118
*631 FILLER_0_31_142
*632 FILLER_0_31_146
*633 FILLER_0_31_154
*634 FILLER_0_31_184
*635 FILLER_0_31_188
*636 FILLER_0_31_2
*637 FILLER_0_31_204
*638 FILLER_0_31_208
*639 FILLER_0_31_212
*640 FILLER_0_31_276
*641 FILLER_0_31_282
*642 FILLER_0_31_346
*643 FILLER_0_31_348
*644 FILLER_0_31_66
*645 FILLER_0_31_72
*646 FILLER_0_31_80
*647 FILLER_0_31_84
*648 FILLER_0_31_86
*649 FILLER_0_32_101
*650 FILLER_0_32_107
*651 FILLER_0_32_115
*652 FILLER_0_32_118
*653 FILLER_0_32_150
*654 FILLER_0_32_166
*655 FILLER_0_32_174
*656 FILLER_0_32_177
*657 FILLER_0_32_2
*658 FILLER_0_32_241
*659 FILLER_0_32_247
*660 FILLER_0_32_311
*661 FILLER_0_32_317
*662 FILLER_0_32_34
*663 FILLER_0_32_37
*664 FILLER_0_33_136
*665 FILLER_0_33_142
*666 FILLER_0_33_2
*667 FILLER_0_33_206
*668 FILLER_0_33_212
*669 FILLER_0_33_276
*670 FILLER_0_33_282
*671 FILLER_0_33_346
*672 FILLER_0_33_348
*673 FILLER_0_33_66
*674 FILLER_0_33_72
*675 FILLER_0_34_101
*676 FILLER_0_34_107
*677 FILLER_0_34_171
*678 FILLER_0_34_177
*679 FILLER_0_34_2
*680 FILLER_0_34_241
*681 FILLER_0_34_247
*682 FILLER_0_34_311
*683 FILLER_0_34_317
*684 FILLER_0_34_34
*685 FILLER_0_34_37
*686 FILLER_0_35_136
*687 FILLER_0_35_142
*688 FILLER_0_35_2
*689 FILLER_0_35_206
*690 FILLER_0_35_212
*691 FILLER_0_35_276
*692 FILLER_0_35_282
*693 FILLER_0_35_346
*694 FILLER_0_35_348
*695 FILLER_0_35_66
*696 FILLER_0_35_72
*697 FILLER_0_36_101
*698 FILLER_0_36_107
*699 FILLER_0_36_171
*700 FILLER_0_36_177
*701 FILLER_0_36_2
*702 FILLER_0_36_241
*703 FILLER_0_36_247
*704 FILLER_0_36_311
*705 FILLER_0_36_317
*706 FILLER_0_36_34
*707 FILLER_0_36_37
*708 FILLER_0_37_136
*709 FILLER_0_37_142
*710 FILLER_0_37_2
*711 FILLER_0_37_206
*712 FILLER_0_37_212
*713 FILLER_0_37_276
*714 FILLER_0_37_282
*715 FILLER_0_37_346
*716 FILLER_0_37_348
*717 FILLER_0_37_66
*718 FILLER_0_37_72
*719 FILLER_0_38_101
*720 FILLER_0_38_107
*721 FILLER_0_38_171
*722 FILLER_0_38_177
*723 FILLER_0_38_2
*724 FILLER_0_38_241
*725 FILLER_0_38_247
*726 FILLER_0_38_311
*727 FILLER_0_38_317
*728 FILLER_0_38_34
*729 FILLER_0_38_37
*730 FILLER_0_39_136
*731 FILLER_0_39_142
*732 FILLER_0_39_2
*733 FILLER_0_39_206
*734 FILLER_0_39_212
*735 FILLER_0_39_276
*736 FILLER_0_39_282
*737 FILLER_0_39_346
*738 FILLER_0_39_348
*739 FILLER_0_39_66
*740 FILLER_0_39_72
*741 FILLER_0_3_136
*742 FILLER_0_3_142
*743 FILLER_0_3_2
*744 FILLER_0_3_206
*745 FILLER_0_3_212
*746 FILLER_0_3_276
*747 FILLER_0_3_282
*748 FILLER_0_3_346
*749 FILLER_0_3_348
*750 FILLER_0_3_66
*751 FILLER_0_3_72
*752 FILLER_0_40_101
*753 FILLER_0_40_107
*754 FILLER_0_40_171
*755 FILLER_0_40_177
*756 FILLER_0_40_2
*757 FILLER_0_40_241
*758 FILLER_0_40_247
*759 FILLER_0_40_311
*760 FILLER_0_40_317
*761 FILLER_0_40_34
*762 FILLER_0_40_37
*763 FILLER_0_41_136
*764 FILLER_0_41_142
*765 FILLER_0_41_2
*766 FILLER_0_41_206
*767 FILLER_0_41_212
*768 FILLER_0_41_276
*769 FILLER_0_41_282
*770 FILLER_0_41_346
*771 FILLER_0_41_348
*772 FILLER_0_41_66
*773 FILLER_0_41_72
*774 FILLER_0_42_101
*775 FILLER_0_42_107
*776 FILLER_0_42_165
*777 FILLER_0_42_173
*778 FILLER_0_42_2
*779 FILLER_0_42_203
*780 FILLER_0_42_237
*781 FILLER_0_42_247
*782 FILLER_0_42_311
*783 FILLER_0_42_317
*784 FILLER_0_42_34
*785 FILLER_0_42_37
*786 FILLER_0_43_136
*787 FILLER_0_43_142
*788 FILLER_0_43_150
*789 FILLER_0_43_154
*790 FILLER_0_43_2
*791 FILLER_0_43_207
*792 FILLER_0_43_209
*793 FILLER_0_43_238
*794 FILLER_0_43_270
*795 FILLER_0_43_278
*796 FILLER_0_43_282
*797 FILLER_0_43_346
*798 FILLER_0_43_348
*799 FILLER_0_43_66
*800 FILLER_0_43_72
*801 FILLER_0_44_104
*802 FILLER_0_44_108
*803 FILLER_0_44_138
*804 FILLER_0_44_142
*805 FILLER_0_44_172
*806 FILLER_0_44_176
*807 FILLER_0_44_2
*808 FILLER_0_44_232
*809 FILLER_0_44_236
*810 FILLER_0_44_240
*811 FILLER_0_44_274
*812 FILLER_0_44_308
*813 FILLER_0_44_342
*814 FILLER_0_44_346
*815 FILLER_0_44_348
*816 FILLER_0_44_36
*817 FILLER_0_44_70
*818 FILLER_0_4_101
*819 FILLER_0_4_107
*820 FILLER_0_4_171
*821 FILLER_0_4_177
*822 FILLER_0_4_2
*823 FILLER_0_4_241
*824 FILLER_0_4_247
*825 FILLER_0_4_311
*826 FILLER_0_4_317
*827 FILLER_0_4_34
*828 FILLER_0_4_37
*829 FILLER_0_5_136
*830 FILLER_0_5_142
*831 FILLER_0_5_2
*832 FILLER_0_5_206
*833 FILLER_0_5_212
*834 FILLER_0_5_276
*835 FILLER_0_5_282
*836 FILLER_0_5_346
*837 FILLER_0_5_348
*838 FILLER_0_5_66
*839 FILLER_0_5_72
*840 FILLER_0_6_101
*841 FILLER_0_6_107
*842 FILLER_0_6_171
*843 FILLER_0_6_177
*844 FILLER_0_6_2
*845 FILLER_0_6_241
*846 FILLER_0_6_247
*847 FILLER_0_6_311
*848 FILLER_0_6_317
*849 FILLER_0_6_34
*850 FILLER_0_6_37
*851 FILLER_0_7_136
*852 FILLER_0_7_142
*853 FILLER_0_7_2
*854 FILLER_0_7_206
*855 FILLER_0_7_212
*856 FILLER_0_7_276
*857 FILLER_0_7_282
*858 FILLER_0_7_346
*859 FILLER_0_7_348
*860 FILLER_0_7_66
*861 FILLER_0_7_72
*862 FILLER_0_8_101
*863 FILLER_0_8_107
*864 FILLER_0_8_171
*865 FILLER_0_8_177
*866 FILLER_0_8_2
*867 FILLER_0_8_241
*868 FILLER_0_8_247
*869 FILLER_0_8_311
*870 FILLER_0_8_317
*871 FILLER_0_8_34
*872 FILLER_0_8_37
*873 FILLER_0_9_136
*874 FILLER_0_9_142
*875 FILLER_0_9_2
*876 FILLER_0_9_206
*877 FILLER_0_9_212
*878 FILLER_0_9_276
*879 FILLER_0_9_282
*880 FILLER_0_9_346
*881 FILLER_0_9_348
*882 FILLER_0_9_66
*883 FILLER_0_9_72
*884 PHY_EDGE_ROW_0_Left_45
*885 PHY_EDGE_ROW_0_Right_0
*886 PHY_EDGE_ROW_10_Left_55
*887 PHY_EDGE_ROW_10_Right_10
*888 PHY_EDGE_ROW_11_Left_56
*889 PHY_EDGE_ROW_11_Right_11
*890 PHY_EDGE_ROW_12_Left_57
*891 PHY_EDGE_ROW_12_Right_12
*892 PHY_EDGE_ROW_13_Left_58
*893 PHY_EDGE_ROW_13_Right_13
*894 PHY_EDGE_ROW_14_Left_59
*895 PHY_EDGE_ROW_14_Right_14
*896 PHY_EDGE_ROW_15_Left_60
*897 PHY_EDGE_ROW_15_Right_15
*898 PHY_EDGE_ROW_16_Left_61
*899 PHY_EDGE_ROW_16_Right_16
*900 PHY_EDGE_ROW_17_Left_62
*901 PHY_EDGE_ROW_17_Right_17
*902 PHY_EDGE_ROW_18_Left_63
*903 PHY_EDGE_ROW_18_Right_18
*904 PHY_EDGE_ROW_19_Left_64
*905 PHY_EDGE_ROW_19_Right_19
*906 PHY_EDGE_ROW_1_Left_46
*907 PHY_EDGE_ROW_1_Right_1
*908 PHY_EDGE_ROW_20_Left_65
*909 PHY_EDGE_ROW_20_Right_20
*910 PHY_EDGE_ROW_21_Left_66
*911 PHY_EDGE_ROW_21_Right_21
*912 PHY_EDGE_ROW_22_Left_67
*913 PHY_EDGE_ROW_22_Right_22
*914 PHY_EDGE_ROW_23_Left_68
*915 PHY_EDGE_ROW_23_Right_23
*916 PHY_EDGE_ROW_24_Left_69
*917 PHY_EDGE_ROW_24_Right_24
*918 PHY_EDGE_ROW_25_Left_70
*919 PHY_EDGE_ROW_25_Right_25
*920 PHY_EDGE_ROW_26_Left_71
*921 PHY_EDGE_ROW_26_Right_26
*922 PHY_EDGE_ROW_27_Left_72
*923 PHY_EDGE_ROW_27_Right_27
*924 PHY_EDGE_ROW_28_Left_73
*925 PHY_EDGE_ROW_28_Right_28
*926 PHY_EDGE_ROW_29_Left_74
*927 PHY_EDGE_ROW_29_Right_29
*928 PHY_EDGE_ROW_2_Left_47
*929 PHY_EDGE_ROW_2_Right_2
*930 PHY_EDGE_ROW_30_Left_75
*931 PHY_EDGE_ROW_30_Right_30
*932 PHY_EDGE_ROW_31_Left_76
*933 PHY_EDGE_ROW_31_Right_31
*934 PHY_EDGE_ROW_32_Left_77
*935 PHY_EDGE_ROW_32_Right_32
*936 PHY_EDGE_ROW_33_Left_78
*937 PHY_EDGE_ROW_33_Right_33
*938 PHY_EDGE_ROW_34_Left_79
*939 PHY_EDGE_ROW_34_Right_34
*940 PHY_EDGE_ROW_35_Left_80
*941 PHY_EDGE_ROW_35_Right_35
*942 PHY_EDGE_ROW_36_Left_81
*943 PHY_EDGE_ROW_36_Right_36
*944 PHY_EDGE_ROW_37_Left_82
*945 PHY_EDGE_ROW_37_Right_37
*946 PHY_EDGE_ROW_38_Left_83
*947 PHY_EDGE_ROW_38_Right_38
*948 PHY_EDGE_ROW_39_Left_84
*949 PHY_EDGE_ROW_39_Right_39
*950 PHY_EDGE_ROW_3_Left_48
*951 PHY_EDGE_ROW_3_Right_3
*952 PHY_EDGE_ROW_40_Left_85
*953 PHY_EDGE_ROW_40_Right_40
*954 PHY_EDGE_ROW_41_Left_86
*955 PHY_EDGE_ROW_41_Right_41
*956 PHY_EDGE_ROW_42_Left_87
*957 PHY_EDGE_ROW_42_Right_42
*958 PHY_EDGE_ROW_43_Left_88
*959 PHY_EDGE_ROW_43_Right_43
*960 PHY_EDGE_ROW_44_Left_89
*961 PHY_EDGE_ROW_44_Right_44
*962 PHY_EDGE_ROW_4_Left_49
*963 PHY_EDGE_ROW_4_Right_4
*964 PHY_EDGE_ROW_5_Left_50
*965 PHY_EDGE_ROW_5_Right_5
*966 PHY_EDGE_ROW_6_Left_51
*967 PHY_EDGE_ROW_6_Right_6
*968 PHY_EDGE_ROW_7_Left_52
*969 PHY_EDGE_ROW_7_Right_7
*970 PHY_EDGE_ROW_8_Left_53
*971 PHY_EDGE_ROW_8_Right_8
*972 PHY_EDGE_ROW_9_Left_54
*973 PHY_EDGE_ROW_9_Right_9
*974 TAP_TAPCELL_ROW_0_90
*975 TAP_TAPCELL_ROW_0_91
*976 TAP_TAPCELL_ROW_0_92
*977 TAP_TAPCELL_ROW_0_93
*978 TAP_TAPCELL_ROW_0_94
*979 TAP_TAPCELL_ROW_0_95
*980 TAP_TAPCELL_ROW_0_96
*981 TAP_TAPCELL_ROW_0_97
*982 TAP_TAPCELL_ROW_0_98
*983 TAP_TAPCELL_ROW_0_99
*984 TAP_TAPCELL_ROW_10_140
*985 TAP_TAPCELL_ROW_10_141
*986 TAP_TAPCELL_ROW_10_142
*987 TAP_TAPCELL_ROW_10_143
*988 TAP_TAPCELL_ROW_10_144
*989 TAP_TAPCELL_ROW_11_145
*990 TAP_TAPCELL_ROW_11_146
*991 TAP_TAPCELL_ROW_11_147
*992 TAP_TAPCELL_ROW_11_148
*993 TAP_TAPCELL_ROW_12_149
*994 TAP_TAPCELL_ROW_12_150
*995 TAP_TAPCELL_ROW_12_151
*996 TAP_TAPCELL_ROW_12_152
*997 TAP_TAPCELL_ROW_12_153
*998 TAP_TAPCELL_ROW_13_154
*999 TAP_TAPCELL_ROW_13_155
*1000 TAP_TAPCELL_ROW_13_156
*1001 TAP_TAPCELL_ROW_13_157
*1002 TAP_TAPCELL_ROW_14_158
*1003 TAP_TAPCELL_ROW_14_159
*1004 TAP_TAPCELL_ROW_14_160
*1005 TAP_TAPCELL_ROW_14_161
*1006 TAP_TAPCELL_ROW_14_162
*1007 TAP_TAPCELL_ROW_15_163
*1008 TAP_TAPCELL_ROW_15_164
*1009 TAP_TAPCELL_ROW_15_165
*1010 TAP_TAPCELL_ROW_15_166
*1011 TAP_TAPCELL_ROW_16_167
*1012 TAP_TAPCELL_ROW_16_168
*1013 TAP_TAPCELL_ROW_16_169
*1014 TAP_TAPCELL_ROW_16_170
*1015 TAP_TAPCELL_ROW_16_171
*1016 TAP_TAPCELL_ROW_17_172
*1017 TAP_TAPCELL_ROW_17_173
*1018 TAP_TAPCELL_ROW_17_174
*1019 TAP_TAPCELL_ROW_17_175
*1020 TAP_TAPCELL_ROW_18_176
*1021 TAP_TAPCELL_ROW_18_177
*1022 TAP_TAPCELL_ROW_18_178
*1023 TAP_TAPCELL_ROW_18_179
*1024 TAP_TAPCELL_ROW_18_180
*1025 TAP_TAPCELL_ROW_19_181
*1026 TAP_TAPCELL_ROW_19_182
*1027 TAP_TAPCELL_ROW_19_183
*1028 TAP_TAPCELL_ROW_19_184
*1029 TAP_TAPCELL_ROW_1_100
*1030 TAP_TAPCELL_ROW_1_101
*1031 TAP_TAPCELL_ROW_1_102
*1032 TAP_TAPCELL_ROW_1_103
*1033 TAP_TAPCELL_ROW_20_185
*1034 TAP_TAPCELL_ROW_20_186
*1035 TAP_TAPCELL_ROW_20_187
*1036 TAP_TAPCELL_ROW_20_188
*1037 TAP_TAPCELL_ROW_20_189
*1038 TAP_TAPCELL_ROW_21_190
*1039 TAP_TAPCELL_ROW_21_191
*1040 TAP_TAPCELL_ROW_21_192
*1041 TAP_TAPCELL_ROW_21_193
*1042 TAP_TAPCELL_ROW_22_194
*1043 TAP_TAPCELL_ROW_22_195
*1044 TAP_TAPCELL_ROW_22_196
*1045 TAP_TAPCELL_ROW_22_197
*1046 TAP_TAPCELL_ROW_22_198
*1047 TAP_TAPCELL_ROW_23_199
*1048 TAP_TAPCELL_ROW_23_200
*1049 TAP_TAPCELL_ROW_23_201
*1050 TAP_TAPCELL_ROW_23_202
*1051 TAP_TAPCELL_ROW_24_203
*1052 TAP_TAPCELL_ROW_24_204
*1053 TAP_TAPCELL_ROW_24_205
*1054 TAP_TAPCELL_ROW_24_206
*1055 TAP_TAPCELL_ROW_24_207
*1056 TAP_TAPCELL_ROW_25_208
*1057 TAP_TAPCELL_ROW_25_209
*1058 TAP_TAPCELL_ROW_25_210
*1059 TAP_TAPCELL_ROW_25_211
*1060 TAP_TAPCELL_ROW_26_212
*1061 TAP_TAPCELL_ROW_26_213
*1062 TAP_TAPCELL_ROW_26_214
*1063 TAP_TAPCELL_ROW_26_215
*1064 TAP_TAPCELL_ROW_26_216
*1065 TAP_TAPCELL_ROW_27_217
*1066 TAP_TAPCELL_ROW_27_218
*1067 TAP_TAPCELL_ROW_27_219
*1068 TAP_TAPCELL_ROW_27_220
*1069 TAP_TAPCELL_ROW_28_221
*1070 TAP_TAPCELL_ROW_28_222
*1071 TAP_TAPCELL_ROW_28_223
*1072 TAP_TAPCELL_ROW_28_224
*1073 TAP_TAPCELL_ROW_28_225
*1074 TAP_TAPCELL_ROW_29_226
*1075 TAP_TAPCELL_ROW_29_227
*1076 TAP_TAPCELL_ROW_29_228
*1077 TAP_TAPCELL_ROW_29_229
*1078 TAP_TAPCELL_ROW_2_104
*1079 TAP_TAPCELL_ROW_2_105
*1080 TAP_TAPCELL_ROW_2_106
*1081 TAP_TAPCELL_ROW_2_107
*1082 TAP_TAPCELL_ROW_2_108
*1083 TAP_TAPCELL_ROW_30_230
*1084 TAP_TAPCELL_ROW_30_231
*1085 TAP_TAPCELL_ROW_30_232
*1086 TAP_TAPCELL_ROW_30_233
*1087 TAP_TAPCELL_ROW_30_234
*1088 TAP_TAPCELL_ROW_31_235
*1089 TAP_TAPCELL_ROW_31_236
*1090 TAP_TAPCELL_ROW_31_237
*1091 TAP_TAPCELL_ROW_31_238
*1092 TAP_TAPCELL_ROW_32_239
*1093 TAP_TAPCELL_ROW_32_240
*1094 TAP_TAPCELL_ROW_32_241
*1095 TAP_TAPCELL_ROW_32_242
*1096 TAP_TAPCELL_ROW_32_243
*1097 TAP_TAPCELL_ROW_33_244
*1098 TAP_TAPCELL_ROW_33_245
*1099 TAP_TAPCELL_ROW_33_246
*1100 TAP_TAPCELL_ROW_33_247
*1101 TAP_TAPCELL_ROW_34_248
*1102 TAP_TAPCELL_ROW_34_249
*1103 TAP_TAPCELL_ROW_34_250
*1104 TAP_TAPCELL_ROW_34_251
*1105 TAP_TAPCELL_ROW_34_252
*1106 TAP_TAPCELL_ROW_35_253
*1107 TAP_TAPCELL_ROW_35_254
*1108 TAP_TAPCELL_ROW_35_255
*1109 TAP_TAPCELL_ROW_35_256
*1110 TAP_TAPCELL_ROW_36_257
*1111 TAP_TAPCELL_ROW_36_258
*1112 TAP_TAPCELL_ROW_36_259
*1113 TAP_TAPCELL_ROW_36_260
*1114 TAP_TAPCELL_ROW_36_261
*1115 TAP_TAPCELL_ROW_37_262
*1116 TAP_TAPCELL_ROW_37_263
*1117 TAP_TAPCELL_ROW_37_264
*1118 TAP_TAPCELL_ROW_37_265
*1119 TAP_TAPCELL_ROW_38_266
*1120 TAP_TAPCELL_ROW_38_267
*1121 TAP_TAPCELL_ROW_38_268
*1122 TAP_TAPCELL_ROW_38_269
*1123 TAP_TAPCELL_ROW_38_270
*1124 TAP_TAPCELL_ROW_39_271
*1125 TAP_TAPCELL_ROW_39_272
*1126 TAP_TAPCELL_ROW_39_273
*1127 TAP_TAPCELL_ROW_39_274
*1128 TAP_TAPCELL_ROW_3_109
*1129 TAP_TAPCELL_ROW_3_110
*1130 TAP_TAPCELL_ROW_3_111
*1131 TAP_TAPCELL_ROW_3_112
*1132 TAP_TAPCELL_ROW_40_275
*1133 TAP_TAPCELL_ROW_40_276
*1134 TAP_TAPCELL_ROW_40_277
*1135 TAP_TAPCELL_ROW_40_278
*1136 TAP_TAPCELL_ROW_40_279
*1137 TAP_TAPCELL_ROW_41_280
*1138 TAP_TAPCELL_ROW_41_281
*1139 TAP_TAPCELL_ROW_41_282
*1140 TAP_TAPCELL_ROW_41_283
*1141 TAP_TAPCELL_ROW_42_284
*1142 TAP_TAPCELL_ROW_42_285
*1143 TAP_TAPCELL_ROW_42_286
*1144 TAP_TAPCELL_ROW_42_287
*1145 TAP_TAPCELL_ROW_42_288
*1146 TAP_TAPCELL_ROW_43_289
*1147 TAP_TAPCELL_ROW_43_290
*1148 TAP_TAPCELL_ROW_43_291
*1149 TAP_TAPCELL_ROW_43_292
*1150 TAP_TAPCELL_ROW_44_293
*1151 TAP_TAPCELL_ROW_44_294
*1152 TAP_TAPCELL_ROW_44_295
*1153 TAP_TAPCELL_ROW_44_296
*1154 TAP_TAPCELL_ROW_44_297
*1155 TAP_TAPCELL_ROW_44_298
*1156 TAP_TAPCELL_ROW_44_299
*1157 TAP_TAPCELL_ROW_44_300
*1158 TAP_TAPCELL_ROW_44_301
*1159 TAP_TAPCELL_ROW_44_302
*1160 TAP_TAPCELL_ROW_4_113
*1161 TAP_TAPCELL_ROW_4_114
*1162 TAP_TAPCELL_ROW_4_115
*1163 TAP_TAPCELL_ROW_4_116
*1164 TAP_TAPCELL_ROW_4_117
*1165 TAP_TAPCELL_ROW_5_118
*1166 TAP_TAPCELL_ROW_5_119
*1167 TAP_TAPCELL_ROW_5_120
*1168 TAP_TAPCELL_ROW_5_121
*1169 TAP_TAPCELL_ROW_6_122
*1170 TAP_TAPCELL_ROW_6_123
*1171 TAP_TAPCELL_ROW_6_124
*1172 TAP_TAPCELL_ROW_6_125
*1173 TAP_TAPCELL_ROW_6_126
*1174 TAP_TAPCELL_ROW_7_127
*1175 TAP_TAPCELL_ROW_7_128
*1176 TAP_TAPCELL_ROW_7_129
*1177 TAP_TAPCELL_ROW_7_130
*1178 TAP_TAPCELL_ROW_8_131
*1179 TAP_TAPCELL_ROW_8_132
*1180 TAP_TAPCELL_ROW_8_133
*1181 TAP_TAPCELL_ROW_8_134
*1182 TAP_TAPCELL_ROW_8_135
*1183 TAP_TAPCELL_ROW_9_136
*1184 TAP_TAPCELL_ROW_9_137
*1185 TAP_TAPCELL_ROW_9_138
*1186 TAP_TAPCELL_ROW_9_139
*1187 _099_
*1188 _100_
*1189 _101_
*1190 _102_
*1191 _103_
*1192 _104_
*1193 _105_
*1194 _106_
*1195 _107_
*1196 _108_
*1197 _109_
*1198 _110_
*1199 _111_
*1200 _112_
*1201 _113_
*1202 _114_
*1203 _115_
*1204 _116_
*1205 _117_
*1206 _118_
*1207 _119_
*1208 _120_
*1209 _121_
*1210 _122_
*1211 _123_
*1212 _124_
*1213 _125_
*1214 _126_
*1215 _127_
*1216 _128_
*1217 _129_
*1218 _130_
*1219 _131_
*1220 _132_
*1221 _133_
*1222 _134_
*1223 _135_
*1224 _136_
*1225 _137_
*1226 _138_
*1227 _139_
*1228 _140_
*1229 _141_
*1230 _142_
*1231 _143_
*1232 _144_
*1233 _145_
*1234 _146_
*1235 _147_
*1236 _148_
*1237 _149_
*1238 _150_
*1239 _151_
*1240 _152_
*1241 _153_
*1242 _154_
*1243 _155_
*1244 _156_
*1245 _157_
*1246 _158_
*1247 _159_
*1248 _160_
*1249 _161_
*1250 _162_
*1251 _163_
*1252 _164_
*1253 _165_
*1254 _166_
*1255 _167_
*1256 _168_
*1257 _169_
*1258 _170_
*1259 _171_
*1260 _172_
*1261 _173_
*1262 _174_
*1263 _175_
*1264 _176_
*1265 _177_
*1266 _178_
*1267 _179_
*1268 _180_
*1269 _181_
*1270 _182_
*1271 _183_
*1272 _184_
*1273 _185_
*1274 _186_
*1275 _187_
*1276 _188_
*1277 _189_
*1278 _190_
*1279 _191_
*1280 _192_
*1281 _193_
*1282 _194_
*1283 _195_
*1284 _196_
*1285 _197_
*1286 _198_
*1287 _199_
*1288 _200_
*1289 _201_
*1290 _202_
*1291 _203_
*1292 _204_
*1293 _205_
*1294 _206_
*1295 _207_
*1296 _208_
*1297 _209_
*1298 _210_
*1299 _211_
*1300 _212_
*1301 _213_
*1302 _214_
*1303 _215_
*1304 _216_
*1305 _217_
*1306 _218_
*1307 _219_
*1308 _220_
*1309 _221_
*1310 _222_
*1311 _223_
*1312 _224_
*1313 _225_
*1314 _226_
*1315 _227_
*1316 clkbuf_0_clk
*1317 clkbuf_1_0__f_clk
*1318 clkbuf_1_1__f_clk
*1319 output1
*1320 output10
*1321 output11
*1322 output12
*1323 output13
*1324 output14
*1325 output15
*1326 output16
*1327 output17
*1328 output18
*1329 output19
*1330 output2
*1331 output20
*1332 output21
*1333 output22
*1334 output23
*1335 output24
*1336 output25
*1337 output26
*1338 output3
*1339 output4
*1340 output5
*1341 output6
*1342 output7
*1343 output8
*1344 output9

*PORTS
clk I
segm[0] O
segm[10] O
segm[11] O
segm[12] O
segm[13] O
segm[1] O
segm[2] O
segm[3] O
segm[4] O
segm[5] O
segm[6] O
segm[7] O
segm[8] O
segm[9] O
sel[0] O
sel[10] O
sel[11] O
sel[1] O
sel[2] O
sel[3] O
sel[4] O
sel[5] O
sel[6] O
sel[7] O
sel[8] O
sel[9] O

*D_NET *1 0.014217
*CONN
*P clk I
*I *1316:I I *D gf180mcu_fd_sc_mcu7t5v0__clkbuf_16
*I *190:I I *D gf180mcu_fd_sc_mcu7t5v0__antenna
*CAP
1 clk 0.00222791
2 *1316:I 0.000348417
3 *190:I 0
4 *1:13 0.00288615
5 *1:11 0.00476563
6 *1316:I *1255:B1 0.000677628
7 *1316:I *111:6 0.000241099
8 *1316:I *127:14 0.000401487
9 *1:11 segm[13] 6.89904e-05
10 *1:13 *1225:A1 0.000114018
11 *1:13 *1252:I 0
12 *1:13 *1255:B1 0.00190404
13 *1:13 *1278:A2 0
14 *1:13 *1299:D 0.000581614
15 *1:13 *1321:I 0
16 *1:13 *64:14 0
*RES
1 clk *1:11 25.796 
2 *1:11 *1:13 25.896 
3 *1:13 *190:I 9 
4 *1:13 *1316:I 13.576 
*END

*D_NET *2 0.00153518
*CONN
*P segm[0] O
*I *1319:Z O *D gf180mcu_fd_sc_mcu7t5v0__buf_8
*CAP
1 segm[0] 0.000696116
2 *1319:Z 0.000696116
3 segm[0] sel[9] 0.000142953
*RES
1 *1319:Z segm[0] 10.688 
*END

*D_NET *3 0.000887729
*CONN
*P segm[10] O
*I *1330:Z O *D gf180mcu_fd_sc_mcu7t5v0__buf_8
*CAP
1 segm[10] 0.000443864
2 *1330:Z 0.000443864
*RES
1 *1330:Z segm[10] 12.276 
*END

*D_NET *4 0.000698543
*CONN
*P segm[11] O
*I *1338:Z O *D gf180mcu_fd_sc_mcu7t5v0__buf_8
*CAP
1 segm[11] 0.000314775
2 *1338:Z 0.000314775
3 segm[11] sel[4] 6.8994e-05
*RES
1 *1338:Z segm[11] 11.86 
*END

*D_NET *5 0.00157803
*CONN
*P segm[12] O
*I *1339:Z O *D gf180mcu_fd_sc_mcu7t5v0__buf_8
*CAP
1 segm[12] 0.000789015
2 *1339:Z 0.000789015
3 segm[12] *1339:I 0
*RES
1 *1339:Z segm[12] 11 
*END

*D_NET *6 0.00111156
*CONN
*P segm[13] O
*I *1340:Z O *D gf180mcu_fd_sc_mcu7t5v0__buf_8
*CAP
1 segm[13] 0.000521283
2 *1340:Z 0.000521283
3 *1:11 segm[13] 6.89904e-05
*RES
1 *1340:Z segm[13] 13.108 
*END

*D_NET *7 0.00289566
*CONN
*P segm[1] O
*I *1341:Z O *D gf180mcu_fd_sc_mcu7t5v0__buf_8
*CAP
1 segm[1] 0.00129396
2 *1341:Z 0.00129396
3 segm[1] segm[4] 0.000139874
4 segm[1] sel[2] 0.000167865
*RES
1 *1341:Z segm[1] 24.472 
*END

*D_NET *8 0.00109739
*CONN
*P segm[2] O
*I *1342:Z O *D gf180mcu_fd_sc_mcu7t5v0__buf_8
*CAP
1 segm[2] 0.000464183
2 *1342:Z 0.000464183
3 segm[2] segm[5] 0.000106609
4 segm[2] sel[7] 6.24106e-05
*RES
1 *1342:Z segm[2] 12.9 
*END
