*SPEF "ieee 1481-1999"
*DESIGN "ita11"
*DATE "11:11:11 Fri 11 11, 1111"
*VENDOR "OpenRCX"
*PROGRAM "Parallel Extraction"
*VERSION "1.0"
*DESIGN_FLOW "NAME_SCOPE LOCAL" "PIN_CAP NONE"
*DIVIDER /
*DELIMITER :
*BUS_DELIMITER []
*T_UNIT 1 NS
*C_UNIT 1 PF
*R_UNIT 1 OHM
*L_UNIT 1 HENRY

*NAME_MAP
*1 clk
*2 segm[0]
*3 segm[10]
*4 segm[11]
*5 segm[12]
*6 segm[13]
*7 segm[1]
*8 segm[2]
*9 segm[3]
*10 segm[4]
*11 segm[5]
*12 segm[6]
*13 segm[7]
*14 segm[8]
*15 segm[9]
*16 sel[0]
*17 sel[10]
*18 sel[11]
*19 sel[1]
*20 sel[2]
*21 sel[3]
*22 sel[4]
*23 sel[5]
*24 sel[6]
*25 sel[7]
*26 sel[8]
*27 sel[9]
*30 _000_
*31 _001_
*32 _002_
*33 _003_
*34 _004_
*35 _005_
*36 _006_
*37 _007_
*38 _008_
*39 _009_
*40 _010_
*41 _011_
*42 _012_
*43 _013_
*44 _014_
*45 _015_
*46 _016_
*47 _017_
*48 _018_
*49 _019_
*50 _020_
*51 _021_
*52 _022_
*53 _023_
*54 _024_
*55 _025_
*56 _026_
*57 _027_
*58 _028_
*59 _029_
*60 _030_
*61 _031_
*62 _032_
*63 _033_
*64 _034_
*65 _035_
*66 _036_
*67 _037_
*68 _038_
*69 _039_
*70 _040_
*71 _041_
*72 _042_
*73 _043_
*74 _044_
*75 _045_
*76 _046_
*77 _047_
*78 _048_
*79 _049_
*80 _050_
*81 _051_
*82 _052_
*83 _053_
*84 _054_
*85 _055_
*86 _056_
*87 _057_
*88 _058_
*89 _059_
*90 _060_
*91 _061_
*92 _062_
*93 _063_
*94 _064_
*95 _065_
*96 _066_
*97 _067_
*98 _068_
*99 _069_
*100 _070_
*101 _071_
*102 _072_
*103 _073_
*104 _074_
*105 _075_
*106 _076_
*107 _077_
*108 _078_
*109 _079_
*110 _080_
*111 _081_
*112 _082_
*113 _083_
*114 _084_
*115 _085_
*116 _086_
*117 _087_
*118 _088_
*119 _089_
*120 _090_
*121 _091_
*122 _092_
*123 _093_
*124 _094_
*125 _095_
*126 _096_
*127 _097_
*128 _098_
*129 _099_
*130 _100_
*131 _101_
*132 _102_
*133 _103_
*134 _104_
*135 _105_
*136 _106_
*137 _107_
*138 _108_
*139 _109_
*140 _110_
*141 _111_
*142 _112_
*143 _113_
*144 _114_
*145 clknet_0_clk
*146 clknet_1_0__leaf_clk
*147 clknet_1_1__leaf_clk
*148 dut11\.count\[0\]
*149 dut11\.count\[1\]
*150 dut11\.count\[2\]
*151 dut11\.count\[3\]
*152 net1
*153 net10
*154 net11
*155 net12
*156 net13
*157 net14
*158 net15
*159 net16
*160 net17
*161 net18
*162 net19
*163 net2
*164 net20
*165 net21
*166 net22
*167 net23
*168 net24
*169 net25
*170 net26
*171 net3
*172 net4
*173 net5
*174 net6
*175 net7
*176 net8
*177 net9
*178 ANTENNA__140__A2
*179 ANTENNA__165__A2
*180 ANTENNA__186__A2
*181 ANTENNA__198__B1
*182 ANTENNA__230__CLK
*183 ANTENNA__231__CLK
*184 ANTENNA__232__CLK
*185 ANTENNA__233__CLK
*186 ANTENNA__234__CLK
*187 ANTENNA__235__CLK
*188 ANTENNA__236__CLK
*189 ANTENNA__237__CLK
*190 ANTENNA__238__CLK
*191 ANTENNA__239__CLK
*192 ANTENNA__240__CLK
*193 ANTENNA__241__CLK
*194 ANTENNA__242__CLK
*195 ANTENNA__243__CLK
*196 ANTENNA__244__CLK
*197 ANTENNA__245__CLK
*198 ANTENNA__246__CLK
*199 ANTENNA__247__CLK
*200 ANTENNA__248__CLK
*201 ANTENNA__249__CLK
*202 ANTENNA__250__CLK
*203 ANTENNA__251__CLK
*204 ANTENNA__252__CLK
*205 ANTENNA__253__CLK
*206 ANTENNA__254__CLK
*207 ANTENNA__255__CLK
*208 ANTENNA__256__CLK
*209 ANTENNA__257__CLK
*210 ANTENNA_clkbuf_0_clk_I
*211 FILLER_0_0_104
*212 FILLER_0_0_138
*213 FILLER_0_0_165
*214 FILLER_0_0_169
*215 FILLER_0_0_172
*216 FILLER_0_0_176
*217 FILLER_0_0_2
*218 FILLER_0_0_206
*219 FILLER_0_0_210
*220 FILLER_0_0_237
*221 FILLER_0_0_266
*222 FILLER_0_0_270
*223 FILLER_0_0_274
*224 FILLER_0_0_308
*225 FILLER_0_0_342
*226 FILLER_0_0_346
*227 FILLER_0_0_348
*228 FILLER_0_0_36
*229 FILLER_0_0_70
*230 FILLER_0_10_101
*231 FILLER_0_10_107
*232 FILLER_0_10_171
*233 FILLER_0_10_177
*234 FILLER_0_10_2
*235 FILLER_0_10_241
*236 FILLER_0_10_247
*237 FILLER_0_10_311
*238 FILLER_0_10_317
*239 FILLER_0_10_34
*240 FILLER_0_10_37
*241 FILLER_0_11_136
*242 FILLER_0_11_142
*243 FILLER_0_11_144
*244 FILLER_0_11_147
*245 FILLER_0_11_155
*246 FILLER_0_11_159
*247 FILLER_0_11_190
*248 FILLER_0_11_194
*249 FILLER_0_11_2
*250 FILLER_0_11_212
*251 FILLER_0_11_276
*252 FILLER_0_11_282
*253 FILLER_0_11_346
*254 FILLER_0_11_348
*255 FILLER_0_11_66
*256 FILLER_0_11_72
*257 FILLER_0_12_101
*258 FILLER_0_12_107
*259 FILLER_0_12_115
*260 FILLER_0_12_150
*261 FILLER_0_12_154
*262 FILLER_0_12_170
*263 FILLER_0_12_174
*264 FILLER_0_12_177
*265 FILLER_0_12_183
*266 FILLER_0_12_187
*267 FILLER_0_12_195
*268 FILLER_0_12_197
*269 FILLER_0_12_2
*270 FILLER_0_12_227
*271 FILLER_0_12_231
*272 FILLER_0_12_239
*273 FILLER_0_12_243
*274 FILLER_0_12_247
*275 FILLER_0_12_311
*276 FILLER_0_12_317
*277 FILLER_0_12_34
*278 FILLER_0_12_37
*279 FILLER_0_13_104
*280 FILLER_0_13_120
*281 FILLER_0_13_128
*282 FILLER_0_13_132
*283 FILLER_0_13_134
*284 FILLER_0_13_142
*285 FILLER_0_13_158
*286 FILLER_0_13_189
*287 FILLER_0_13_193
*288 FILLER_0_13_2
*289 FILLER_0_13_201
*290 FILLER_0_13_209
*291 FILLER_0_13_223
*292 FILLER_0_13_255
*293 FILLER_0_13_271
*294 FILLER_0_13_279
*295 FILLER_0_13_282
*296 FILLER_0_13_346
*297 FILLER_0_13_348
*298 FILLER_0_13_66
*299 FILLER_0_13_72
*300 FILLER_0_14_101
*301 FILLER_0_14_107
*302 FILLER_0_14_113
*303 FILLER_0_14_129
*304 FILLER_0_14_166
*305 FILLER_0_14_170
*306 FILLER_0_14_174
*307 FILLER_0_14_182
*308 FILLER_0_14_190
*309 FILLER_0_14_194
*310 FILLER_0_14_2
*311 FILLER_0_14_224
*312 FILLER_0_14_228
*313 FILLER_0_14_244
*314 FILLER_0_14_247
*315 FILLER_0_14_311
*316 FILLER_0_14_317
*317 FILLER_0_14_34
*318 FILLER_0_14_37
*319 FILLER_0_15_147
*320 FILLER_0_15_151
*321 FILLER_0_15_159
*322 FILLER_0_15_163
*323 FILLER_0_15_165
*324 FILLER_0_15_174
*325 FILLER_0_15_185
*326 FILLER_0_15_193
*327 FILLER_0_15_197
*328 FILLER_0_15_199
*329 FILLER_0_15_2
*330 FILLER_0_15_208
*331 FILLER_0_15_212
*332 FILLER_0_15_276
*333 FILLER_0_15_282
*334 FILLER_0_15_346
*335 FILLER_0_15_348
*336 FILLER_0_15_66
*337 FILLER_0_15_72
*338 FILLER_0_15_80
*339 FILLER_0_16_101
*340 FILLER_0_16_120
*341 FILLER_0_16_122
*342 FILLER_0_16_128
*343 FILLER_0_16_160
*344 FILLER_0_16_164
*345 FILLER_0_16_173
*346 FILLER_0_16_184
*347 FILLER_0_16_2
*348 FILLER_0_16_200
*349 FILLER_0_16_213
*350 FILLER_0_16_247
*351 FILLER_0_16_311
*352 FILLER_0_16_317
*353 FILLER_0_16_34
*354 FILLER_0_16_37
*355 FILLER_0_17_125
*356 FILLER_0_17_131
*357 FILLER_0_17_139
*358 FILLER_0_17_165
*359 FILLER_0_17_187
*360 FILLER_0_17_189
*361 FILLER_0_17_196
*362 FILLER_0_17_204
*363 FILLER_0_17_208
*364 FILLER_0_17_212
*365 FILLER_0_17_220
*366 FILLER_0_17_223
*367 FILLER_0_17_256
*368 FILLER_0_17_272
*369 FILLER_0_17_28
*370 FILLER_0_17_282
*371 FILLER_0_17_314
*372 FILLER_0_17_322
*373 FILLER_0_17_60
*374 FILLER_0_17_68
*375 FILLER_0_17_72
*376 FILLER_0_17_88
*377 FILLER_0_17_95
*378 FILLER_0_18_107
*379 FILLER_0_18_111
*380 FILLER_0_18_123
*381 FILLER_0_18_191
*382 FILLER_0_18_221
*383 FILLER_0_18_223
*384 FILLER_0_18_247
*385 FILLER_0_18_28
*386 FILLER_0_18_311
*387 FILLER_0_18_317
*388 FILLER_0_18_32
*389 FILLER_0_18_321
*390 FILLER_0_18_34
*391 FILLER_0_18_37
*392 FILLER_0_18_69
*393 FILLER_0_18_73
*394 FILLER_0_18_75
*395 FILLER_0_19_104
*396 FILLER_0_19_108
*397 FILLER_0_19_110
*398 FILLER_0_19_127
*399 FILLER_0_19_131
*400 FILLER_0_19_194
*401 FILLER_0_19_2
*402 FILLER_0_19_205
*403 FILLER_0_19_209
*404 FILLER_0_19_212
*405 FILLER_0_19_220
*406 FILLER_0_19_255
*407 FILLER_0_19_271
*408 FILLER_0_19_279
*409 FILLER_0_19_282
*410 FILLER_0_19_314
*411 FILLER_0_19_322
*412 FILLER_0_19_66
*413 FILLER_0_19_72
*414 FILLER_0_1_136
*415 FILLER_0_1_142
*416 FILLER_0_1_174
*417 FILLER_0_1_178
*418 FILLER_0_1_180
*419 FILLER_0_1_2
*420 FILLER_0_1_207
*421 FILLER_0_1_209
*422 FILLER_0_1_212
*423 FILLER_0_1_216
*424 FILLER_0_1_243
*425 FILLER_0_1_275
*426 FILLER_0_1_279
*427 FILLER_0_1_282
*428 FILLER_0_1_346
*429 FILLER_0_1_348
*430 FILLER_0_1_66
*431 FILLER_0_1_72
*432 FILLER_0_20_101
*433 FILLER_0_20_107
*434 FILLER_0_20_111
*435 FILLER_0_20_115
*436 FILLER_0_20_124
*437 FILLER_0_20_140
*438 FILLER_0_20_142
*439 FILLER_0_20_177
*440 FILLER_0_20_181
*441 FILLER_0_20_188
*442 FILLER_0_20_2
*443 FILLER_0_20_227
*444 FILLER_0_20_231
*445 FILLER_0_20_244
*446 FILLER_0_20_247
*447 FILLER_0_20_311
*448 FILLER_0_20_317
*449 FILLER_0_20_34
*450 FILLER_0_20_37
*451 FILLER_0_21_111
*452 FILLER_0_21_142
*453 FILLER_0_21_144
*454 FILLER_0_21_2
*455 FILLER_0_21_205
*456 FILLER_0_21_209
*457 FILLER_0_21_221
*458 FILLER_0_21_225
*459 FILLER_0_21_227
*460 FILLER_0_21_259
*461 FILLER_0_21_275
*462 FILLER_0_21_279
*463 FILLER_0_21_282
*464 FILLER_0_21_346
*465 FILLER_0_21_348
*466 FILLER_0_21_66
*467 FILLER_0_21_72
*468 FILLER_0_22_107
*469 FILLER_0_22_114
*470 FILLER_0_22_116
*471 FILLER_0_22_173
*472 FILLER_0_22_177
*473 FILLER_0_22_185
*474 FILLER_0_22_187
*475 FILLER_0_22_2
*476 FILLER_0_22_238
*477 FILLER_0_22_242
*478 FILLER_0_22_244
*479 FILLER_0_22_260
*480 FILLER_0_22_292
*481 FILLER_0_22_308
*482 FILLER_0_22_312
*483 FILLER_0_22_314
*484 FILLER_0_22_317
*485 FILLER_0_22_321
*486 FILLER_0_22_34
*487 FILLER_0_22_37
*488 FILLER_0_22_69
*489 FILLER_0_22_73
*490 FILLER_0_22_75
*491 FILLER_0_23_109
*492 FILLER_0_23_113
*493 FILLER_0_23_123
*494 FILLER_0_23_127
*495 FILLER_0_23_142
*496 FILLER_0_23_193
*497 FILLER_0_23_2
*498 FILLER_0_23_206
*499 FILLER_0_23_220
*500 FILLER_0_23_259
*501 FILLER_0_23_275
*502 FILLER_0_23_279
*503 FILLER_0_23_282
*504 FILLER_0_23_314
*505 FILLER_0_23_322
*506 FILLER_0_23_66
*507 FILLER_0_23_72
*508 FILLER_0_23_88
*509 FILLER_0_23_96
*510 FILLER_0_24_101
*511 FILLER_0_24_107
*512 FILLER_0_24_115
*513 FILLER_0_24_119
*514 FILLER_0_24_135
*515 FILLER_0_24_143
*516 FILLER_0_24_147
*517 FILLER_0_24_183
*518 FILLER_0_24_191
*519 FILLER_0_24_2
*520 FILLER_0_24_202
*521 FILLER_0_24_224
*522 FILLER_0_24_232
*523 FILLER_0_24_242
*524 FILLER_0_24_244
*525 FILLER_0_24_252
*526 FILLER_0_24_284
*527 FILLER_0_24_300
*528 FILLER_0_24_308
*529 FILLER_0_24_312
*530 FILLER_0_24_314
*531 FILLER_0_24_317
*532 FILLER_0_24_321
*533 FILLER_0_24_34
*534 FILLER_0_24_37
*535 FILLER_0_25_117
*536 FILLER_0_25_128
*537 FILLER_0_25_132
*538 FILLER_0_25_142
*539 FILLER_0_25_146
*540 FILLER_0_25_148
*541 FILLER_0_25_163
*542 FILLER_0_25_177
*543 FILLER_0_25_2
*544 FILLER_0_25_212
*545 FILLER_0_25_216
*546 FILLER_0_25_282
*547 FILLER_0_25_314
*548 FILLER_0_25_322
*549 FILLER_0_25_66
*550 FILLER_0_25_72
*551 FILLER_0_26_101
*552 FILLER_0_26_111
*553 FILLER_0_26_127
*554 FILLER_0_26_140
*555 FILLER_0_26_142
*556 FILLER_0_26_154
*557 FILLER_0_26_162
*558 FILLER_0_26_173
*559 FILLER_0_26_177
*560 FILLER_0_26_193
*561 FILLER_0_26_207
*562 FILLER_0_26_223
*563 FILLER_0_26_238
*564 FILLER_0_26_242
*565 FILLER_0_26_244
*566 FILLER_0_26_247
*567 FILLER_0_26_28
*568 FILLER_0_26_311
*569 FILLER_0_26_317
*570 FILLER_0_26_32
*571 FILLER_0_26_34
*572 FILLER_0_26_37
*573 FILLER_0_27_104
*574 FILLER_0_27_108
*575 FILLER_0_27_139
*576 FILLER_0_27_142
*577 FILLER_0_27_146
*578 FILLER_0_27_158
*579 FILLER_0_27_166
*580 FILLER_0_27_170
*581 FILLER_0_27_184
*582 FILLER_0_27_194
*583 FILLER_0_27_212
*584 FILLER_0_27_220
*585 FILLER_0_27_224
*586 FILLER_0_27_262
*587 FILLER_0_27_278
*588 FILLER_0_27_28
*589 FILLER_0_27_282
*590 FILLER_0_27_314
*591 FILLER_0_27_322
*592 FILLER_0_27_60
*593 FILLER_0_27_68
*594 FILLER_0_27_72
*595 FILLER_0_28_101
*596 FILLER_0_28_107
*597 FILLER_0_28_144
*598 FILLER_0_28_148
*599 FILLER_0_28_150
*600 FILLER_0_28_157
*601 FILLER_0_28_166
*602 FILLER_0_28_174
*603 FILLER_0_28_182
*604 FILLER_0_28_2
*605 FILLER_0_28_214
*606 FILLER_0_28_234
*607 FILLER_0_28_241
*608 FILLER_0_28_252
*609 FILLER_0_28_284
*610 FILLER_0_28_300
*611 FILLER_0_28_308
*612 FILLER_0_28_312
*613 FILLER_0_28_314
*614 FILLER_0_28_317
*615 FILLER_0_28_321
*616 FILLER_0_28_34
*617 FILLER_0_28_37
*618 FILLER_0_29_136
*619 FILLER_0_29_142
*620 FILLER_0_29_150
*621 FILLER_0_29_152
*622 FILLER_0_29_166
*623 FILLER_0_29_174
*624 FILLER_0_29_192
*625 FILLER_0_29_196
*626 FILLER_0_29_2
*627 FILLER_0_29_203
*628 FILLER_0_29_207
*629 FILLER_0_29_209
*630 FILLER_0_29_212
*631 FILLER_0_29_216
*632 FILLER_0_29_251
*633 FILLER_0_29_255
*634 FILLER_0_29_271
*635 FILLER_0_29_279
*636 FILLER_0_29_282
*637 FILLER_0_29_314
*638 FILLER_0_29_322
*639 FILLER_0_29_66
*640 FILLER_0_29_72
*641 FILLER_0_2_101
*642 FILLER_0_2_107
*643 FILLER_0_2_171
*644 FILLER_0_2_177
*645 FILLER_0_2_2
*646 FILLER_0_2_241
*647 FILLER_0_2_247
*648 FILLER_0_2_311
*649 FILLER_0_2_317
*650 FILLER_0_2_34
*651 FILLER_0_2_37
*652 FILLER_0_30_101
*653 FILLER_0_30_107
*654 FILLER_0_30_123
*655 FILLER_0_30_127
*656 FILLER_0_30_129
*657 FILLER_0_30_159
*658 FILLER_0_30_171
*659 FILLER_0_30_177
*660 FILLER_0_30_2
*661 FILLER_0_30_210
*662 FILLER_0_30_214
*663 FILLER_0_30_247
*664 FILLER_0_30_251
*665 FILLER_0_30_317
*666 FILLER_0_30_321
*667 FILLER_0_30_34
*668 FILLER_0_30_37
*669 FILLER_0_31_136
*670 FILLER_0_31_142
*671 FILLER_0_31_2
*672 FILLER_0_31_201
*673 FILLER_0_31_205
*674 FILLER_0_31_209
*675 FILLER_0_31_212
*676 FILLER_0_31_276
*677 FILLER_0_31_282
*678 FILLER_0_31_346
*679 FILLER_0_31_348
*680 FILLER_0_31_66
*681 FILLER_0_31_72
*682 FILLER_0_32_101
*683 FILLER_0_32_107
*684 FILLER_0_32_139
*685 FILLER_0_32_155
*686 FILLER_0_32_163
*687 FILLER_0_32_172
*688 FILLER_0_32_174
*689 FILLER_0_32_177
*690 FILLER_0_32_186
*691 FILLER_0_32_2
*692 FILLER_0_32_218
*693 FILLER_0_32_234
*694 FILLER_0_32_242
*695 FILLER_0_32_244
*696 FILLER_0_32_247
*697 FILLER_0_32_311
*698 FILLER_0_32_317
*699 FILLER_0_32_34
*700 FILLER_0_32_37
*701 FILLER_0_33_136
*702 FILLER_0_33_142
*703 FILLER_0_33_2
*704 FILLER_0_33_206
*705 FILLER_0_33_212
*706 FILLER_0_33_276
*707 FILLER_0_33_282
*708 FILLER_0_33_346
*709 FILLER_0_33_348
*710 FILLER_0_33_66
*711 FILLER_0_33_72
*712 FILLER_0_34_101
*713 FILLER_0_34_107
*714 FILLER_0_34_171
*715 FILLER_0_34_177
*716 FILLER_0_34_2
*717 FILLER_0_34_241
*718 FILLER_0_34_247
*719 FILLER_0_34_311
*720 FILLER_0_34_317
*721 FILLER_0_34_34
*722 FILLER_0_34_37
*723 FILLER_0_35_136
*724 FILLER_0_35_142
*725 FILLER_0_35_2
*726 FILLER_0_35_206
*727 FILLER_0_35_212
*728 FILLER_0_35_276
*729 FILLER_0_35_282
*730 FILLER_0_35_346
*731 FILLER_0_35_348
*732 FILLER_0_35_66
*733 FILLER_0_35_72
*734 FILLER_0_36_101
*735 FILLER_0_36_107
*736 FILLER_0_36_171
*737 FILLER_0_36_177
*738 FILLER_0_36_2
*739 FILLER_0_36_241
*740 FILLER_0_36_247
*741 FILLER_0_36_311
*742 FILLER_0_36_317
*743 FILLER_0_36_34
*744 FILLER_0_36_37
*745 FILLER_0_37_136
*746 FILLER_0_37_142
*747 FILLER_0_37_2
*748 FILLER_0_37_206
*749 FILLER_0_37_212
*750 FILLER_0_37_276
*751 FILLER_0_37_282
*752 FILLER_0_37_346
*753 FILLER_0_37_348
*754 FILLER_0_37_66
*755 FILLER_0_37_72
*756 FILLER_0_38_101
*757 FILLER_0_38_107
*758 FILLER_0_38_171
*759 FILLER_0_38_177
*760 FILLER_0_38_2
*761 FILLER_0_38_241
*762 FILLER_0_38_247
*763 FILLER_0_38_311
*764 FILLER_0_38_317
*765 FILLER_0_38_34
*766 FILLER_0_38_37
*767 FILLER_0_39_136
*768 FILLER_0_39_142
*769 FILLER_0_39_2
*770 FILLER_0_39_206
*771 FILLER_0_39_212
*772 FILLER_0_39_276
*773 FILLER_0_39_282
*774 FILLER_0_39_346
*775 FILLER_0_39_348
*776 FILLER_0_39_66
*777 FILLER_0_39_72
*778 FILLER_0_3_136
*779 FILLER_0_3_142
*780 FILLER_0_3_2
*781 FILLER_0_3_206
*782 FILLER_0_3_212
*783 FILLER_0_3_276
*784 FILLER_0_3_282
*785 FILLER_0_3_346
*786 FILLER_0_3_348
*787 FILLER_0_3_66
*788 FILLER_0_3_72
*789 FILLER_0_40_101
*790 FILLER_0_40_107
*791 FILLER_0_40_171
*792 FILLER_0_40_177
*793 FILLER_0_40_2
*794 FILLER_0_40_241
*795 FILLER_0_40_247
*796 FILLER_0_40_311
*797 FILLER_0_40_317
*798 FILLER_0_40_34
*799 FILLER_0_40_37
*800 FILLER_0_41_136
*801 FILLER_0_41_142
*802 FILLER_0_41_2
*803 FILLER_0_41_206
*804 FILLER_0_41_212
*805 FILLER_0_41_276
*806 FILLER_0_41_282
*807 FILLER_0_41_346
*808 FILLER_0_41_348
*809 FILLER_0_41_66
*810 FILLER_0_41_72
*811 FILLER_0_42_101
*812 FILLER_0_42_107
*813 FILLER_0_42_171
*814 FILLER_0_42_177
*815 FILLER_0_42_2
*816 FILLER_0_42_241
*817 FILLER_0_42_247
*818 FILLER_0_42_311
*819 FILLER_0_42_317
*820 FILLER_0_42_34
*821 FILLER_0_42_37
*822 FILLER_0_43_136
*823 FILLER_0_43_142
*824 FILLER_0_43_150
*825 FILLER_0_43_154
*826 FILLER_0_43_156
*827 FILLER_0_43_183
*828 FILLER_0_43_199
*829 FILLER_0_43_2
*830 FILLER_0_43_207
*831 FILLER_0_43_209
*832 FILLER_0_43_238
*833 FILLER_0_43_270
*834 FILLER_0_43_278
*835 FILLER_0_43_282
*836 FILLER_0_43_346
*837 FILLER_0_43_348
*838 FILLER_0_43_66
*839 FILLER_0_43_72
*840 FILLER_0_44_104
*841 FILLER_0_44_138
*842 FILLER_0_44_142
*843 FILLER_0_44_198
*844 FILLER_0_44_2
*845 FILLER_0_44_202
*846 FILLER_0_44_232
*847 FILLER_0_44_236
*848 FILLER_0_44_240
*849 FILLER_0_44_274
*850 FILLER_0_44_308
*851 FILLER_0_44_342
*852 FILLER_0_44_346
*853 FILLER_0_44_348
*854 FILLER_0_44_36
*855 FILLER_0_44_70
*856 FILLER_0_4_101
*857 FILLER_0_4_107
*858 FILLER_0_4_171
*859 FILLER_0_4_177
*860 FILLER_0_4_2
*861 FILLER_0_4_241
*862 FILLER_0_4_247
*863 FILLER_0_4_311
*864 FILLER_0_4_317
*865 FILLER_0_4_34
*866 FILLER_0_4_37
*867 FILLER_0_5_136
*868 FILLER_0_5_142
*869 FILLER_0_5_2
*870 FILLER_0_5_206
*871 FILLER_0_5_212
*872 FILLER_0_5_276
*873 FILLER_0_5_282
*874 FILLER_0_5_346
*875 FILLER_0_5_348
*876 FILLER_0_5_66
*877 FILLER_0_5_72
*878 FILLER_0_6_101
*879 FILLER_0_6_107
*880 FILLER_0_6_171
*881 FILLER_0_6_177
*882 FILLER_0_6_2
*883 FILLER_0_6_241
*884 FILLER_0_6_247
*885 FILLER_0_6_311
*886 FILLER_0_6_317
*887 FILLER_0_6_34
*888 FILLER_0_6_37
*889 FILLER_0_7_136
*890 FILLER_0_7_142
*891 FILLER_0_7_2
*892 FILLER_0_7_206
*893 FILLER_0_7_212
*894 FILLER_0_7_276
*895 FILLER_0_7_282
*896 FILLER_0_7_346
*897 FILLER_0_7_348
*898 FILLER_0_7_66
*899 FILLER_0_7_72
*900 FILLER_0_8_101
*901 FILLER_0_8_107
*902 FILLER_0_8_171
*903 FILLER_0_8_177
*904 FILLER_0_8_2
*905 FILLER_0_8_241
*906 FILLER_0_8_247
*907 FILLER_0_8_311
*908 FILLER_0_8_317
*909 FILLER_0_8_34
*910 FILLER_0_8_37
*911 FILLER_0_9_136
*912 FILLER_0_9_142
*913 FILLER_0_9_2
*914 FILLER_0_9_206
*915 FILLER_0_9_212
*916 FILLER_0_9_276
*917 FILLER_0_9_282
*918 FILLER_0_9_346
*919 FILLER_0_9_348
*920 FILLER_0_9_66
*921 FILLER_0_9_72
*922 PHY_EDGE_ROW_0_Left_45
*923 PHY_EDGE_ROW_0_Right_0
*924 PHY_EDGE_ROW_10_Left_55
*925 PHY_EDGE_ROW_10_Right_10
*926 PHY_EDGE_ROW_11_Left_56
*927 PHY_EDGE_ROW_11_Right_11
*928 PHY_EDGE_ROW_12_Left_57
*929 PHY_EDGE_ROW_12_Right_12
*930 PHY_EDGE_ROW_13_Left_58
*931 PHY_EDGE_ROW_13_Right_13
*932 PHY_EDGE_ROW_14_Left_59
*933 PHY_EDGE_ROW_14_Right_14
*934 PHY_EDGE_ROW_15_Left_60
*935 PHY_EDGE_ROW_15_Right_15
*936 PHY_EDGE_ROW_16_Left_61
*937 PHY_EDGE_ROW_16_Right_16
*938 PHY_EDGE_ROW_17_Left_62
*939 PHY_EDGE_ROW_17_Right_17
*940 PHY_EDGE_ROW_18_Left_63
*941 PHY_EDGE_ROW_18_Right_18
*942 PHY_EDGE_ROW_19_Left_64
*943 PHY_EDGE_ROW_19_Right_19
*944 PHY_EDGE_ROW_1_Left_46
*945 PHY_EDGE_ROW_1_Right_1
*946 PHY_EDGE_ROW_20_Left_65
*947 PHY_EDGE_ROW_20_Right_20
*948 PHY_EDGE_ROW_21_Left_66
*949 PHY_EDGE_ROW_21_Right_21
*950 PHY_EDGE_ROW_22_Left_67
*951 PHY_EDGE_ROW_22_Right_22
*952 PHY_EDGE_ROW_23_Left_68
*953 PHY_EDGE_ROW_23_Right_23
*954 PHY_EDGE_ROW_24_Left_69
*955 PHY_EDGE_ROW_24_Right_24
*956 PHY_EDGE_ROW_25_Left_70
*957 PHY_EDGE_ROW_25_Right_25
*958 PHY_EDGE_ROW_26_Left_71
*959 PHY_EDGE_ROW_26_Right_26
*960 PHY_EDGE_ROW_27_Left_72
*961 PHY_EDGE_ROW_27_Right_27
*962 PHY_EDGE_ROW_28_Left_73
*963 PHY_EDGE_ROW_28_Right_28
*964 PHY_EDGE_ROW_29_Left_74
*965 PHY_EDGE_ROW_29_Right_29
*966 PHY_EDGE_ROW_2_Left_47
*967 PHY_EDGE_ROW_2_Right_2
*968 PHY_EDGE_ROW_30_Left_75
*969 PHY_EDGE_ROW_30_Right_30
*970 PHY_EDGE_ROW_31_Left_76
*971 PHY_EDGE_ROW_31_Right_31
*972 PHY_EDGE_ROW_32_Left_77
*973 PHY_EDGE_ROW_32_Right_32
*974 PHY_EDGE_ROW_33_Left_78
*975 PHY_EDGE_ROW_33_Right_33
*976 PHY_EDGE_ROW_34_Left_79
*977 PHY_EDGE_ROW_34_Right_34
*978 PHY_EDGE_ROW_35_Left_80
*979 PHY_EDGE_ROW_35_Right_35
*980 PHY_EDGE_ROW_36_Left_81
*981 PHY_EDGE_ROW_36_Right_36
*982 PHY_EDGE_ROW_37_Left_82
*983 PHY_EDGE_ROW_37_Right_37
*984 PHY_EDGE_ROW_38_Left_83
*985 PHY_EDGE_ROW_38_Right_38
*986 PHY_EDGE_ROW_39_Left_84
*987 PHY_EDGE_ROW_39_Right_39
*988 PHY_EDGE_ROW_3_Left_48
*989 PHY_EDGE_ROW_3_Right_3
*990 PHY_EDGE_ROW_40_Left_85
*991 PHY_EDGE_ROW_40_Right_40
*992 PHY_EDGE_ROW_41_Left_86
*993 PHY_EDGE_ROW_41_Right_41
*994 PHY_EDGE_ROW_42_Left_87
*995 PHY_EDGE_ROW_42_Right_42
*996 PHY_EDGE_ROW_43_Left_88
*997 PHY_EDGE_ROW_43_Right_43
*998 PHY_EDGE_ROW_44_Left_89
*999 PHY_EDGE_ROW_44_Right_44
*1000 PHY_EDGE_ROW_4_Left_49
*1001 PHY_EDGE_ROW_4_Right_4
*1002 PHY_EDGE_ROW_5_Left_50
*1003 PHY_EDGE_ROW_5_Right_5
*1004 PHY_EDGE_ROW_6_Left_51
*1005 PHY_EDGE_ROW_6_Right_6
*1006 PHY_EDGE_ROW_7_Left_52
*1007 PHY_EDGE_ROW_7_Right_7
*1008 PHY_EDGE_ROW_8_Left_53
*1009 PHY_EDGE_ROW_8_Right_8
*1010 PHY_EDGE_ROW_9_Left_54
*1011 PHY_EDGE_ROW_9_Right_9
*1012 TAP_TAPCELL_ROW_0_90
*1013 TAP_TAPCELL_ROW_0_91
*1014 TAP_TAPCELL_ROW_0_92
*1015 TAP_TAPCELL_ROW_0_93
*1016 TAP_TAPCELL_ROW_0_94
*1017 TAP_TAPCELL_ROW_0_95
*1018 TAP_TAPCELL_ROW_0_96
*1019 TAP_TAPCELL_ROW_0_97
*1020 TAP_TAPCELL_ROW_0_98
*1021 TAP_TAPCELL_ROW_0_99
*1022 TAP_TAPCELL_ROW_10_140
*1023 TAP_TAPCELL_ROW_10_141
*1024 TAP_TAPCELL_ROW_10_142
*1025 TAP_TAPCELL_ROW_10_143
*1026 TAP_TAPCELL_ROW_10_144
*1027 TAP_TAPCELL_ROW_11_145
*1028 TAP_TAPCELL_ROW_11_146
*1029 TAP_TAPCELL_ROW_11_147
*1030 TAP_TAPCELL_ROW_11_148
*1031 TAP_TAPCELL_ROW_12_149
*1032 TAP_TAPCELL_ROW_12_150
*1033 TAP_TAPCELL_ROW_12_151
*1034 TAP_TAPCELL_ROW_12_152
*1035 TAP_TAPCELL_ROW_12_153
*1036 TAP_TAPCELL_ROW_13_154
*1037 TAP_TAPCELL_ROW_13_155
*1038 TAP_TAPCELL_ROW_13_156
*1039 TAP_TAPCELL_ROW_13_157
*1040 TAP_TAPCELL_ROW_14_158
*1041 TAP_TAPCELL_ROW_14_159
*1042 TAP_TAPCELL_ROW_14_160
*1043 TAP_TAPCELL_ROW_14_161
*1044 TAP_TAPCELL_ROW_14_162
*1045 TAP_TAPCELL_ROW_15_163
*1046 TAP_TAPCELL_ROW_15_164
*1047 TAP_TAPCELL_ROW_15_165
*1048 TAP_TAPCELL_ROW_15_166
*1049 TAP_TAPCELL_ROW_16_167
*1050 TAP_TAPCELL_ROW_16_168
*1051 TAP_TAPCELL_ROW_16_169
*1052 TAP_TAPCELL_ROW_16_170
*1053 TAP_TAPCELL_ROW_16_171
*1054 TAP_TAPCELL_ROW_17_172
*1055 TAP_TAPCELL_ROW_17_173
*1056 TAP_TAPCELL_ROW_17_174
*1057 TAP_TAPCELL_ROW_17_175
*1058 TAP_TAPCELL_ROW_18_176
*1059 TAP_TAPCELL_ROW_18_177
*1060 TAP_TAPCELL_ROW_18_178
*1061 TAP_TAPCELL_ROW_18_179
*1062 TAP_TAPCELL_ROW_18_180
*1063 TAP_TAPCELL_ROW_19_181
*1064 TAP_TAPCELL_ROW_19_182
*1065 TAP_TAPCELL_ROW_19_183
*1066 TAP_TAPCELL_ROW_19_184
*1067 TAP_TAPCELL_ROW_1_100
*1068 TAP_TAPCELL_ROW_1_101
*1069 TAP_TAPCELL_ROW_1_102
*1070 TAP_TAPCELL_ROW_1_103
*1071 TAP_TAPCELL_ROW_20_185
*1072 TAP_TAPCELL_ROW_20_186
*1073 TAP_TAPCELL_ROW_20_187
*1074 TAP_TAPCELL_ROW_20_188
*1075 TAP_TAPCELL_ROW_20_189
*1076 TAP_TAPCELL_ROW_21_190
*1077 TAP_TAPCELL_ROW_21_191
*1078 TAP_TAPCELL_ROW_21_192
*1079 TAP_TAPCELL_ROW_21_193
*1080 TAP_TAPCELL_ROW_22_194
*1081 TAP_TAPCELL_ROW_22_195
*1082 TAP_TAPCELL_ROW_22_196
*1083 TAP_TAPCELL_ROW_22_197
*1084 TAP_TAPCELL_ROW_22_198
*1085 TAP_TAPCELL_ROW_23_199
*1086 TAP_TAPCELL_ROW_23_200
*1087 TAP_TAPCELL_ROW_23_201
*1088 TAP_TAPCELL_ROW_23_202
*1089 TAP_TAPCELL_ROW_24_203
*1090 TAP_TAPCELL_ROW_24_204
*1091 TAP_TAPCELL_ROW_24_205
*1092 TAP_TAPCELL_ROW_24_206
*1093 TAP_TAPCELL_ROW_24_207
*1094 TAP_TAPCELL_ROW_25_208
*1095 TAP_TAPCELL_ROW_25_209
*1096 TAP_TAPCELL_ROW_25_210
*1097 TAP_TAPCELL_ROW_25_211
*1098 TAP_TAPCELL_ROW_26_212
*1099 TAP_TAPCELL_ROW_26_213
*1100 TAP_TAPCELL_ROW_26_214
*1101 TAP_TAPCELL_ROW_26_215
*1102 TAP_TAPCELL_ROW_26_216
*1103 TAP_TAPCELL_ROW_27_217
*1104 TAP_TAPCELL_ROW_27_218
*1105 TAP_TAPCELL_ROW_27_219
*1106 TAP_TAPCELL_ROW_27_220
*1107 TAP_TAPCELL_ROW_28_221
*1108 TAP_TAPCELL_ROW_28_222
*1109 TAP_TAPCELL_ROW_28_223
*1110 TAP_TAPCELL_ROW_28_224
*1111 TAP_TAPCELL_ROW_28_225
*1112 TAP_TAPCELL_ROW_29_226
*1113 TAP_TAPCELL_ROW_29_227
*1114 TAP_TAPCELL_ROW_29_228
*1115 TAP_TAPCELL_ROW_29_229
*1116 TAP_TAPCELL_ROW_2_104
*1117 TAP_TAPCELL_ROW_2_105
*1118 TAP_TAPCELL_ROW_2_106
*1119 TAP_TAPCELL_ROW_2_107
*1120 TAP_TAPCELL_ROW_2_108
*1121 TAP_TAPCELL_ROW_30_230
*1122 TAP_TAPCELL_ROW_30_231
*1123 TAP_TAPCELL_ROW_30_232
*1124 TAP_TAPCELL_ROW_30_233
*1125 TAP_TAPCELL_ROW_30_234
*1126 TAP_TAPCELL_ROW_31_235
*1127 TAP_TAPCELL_ROW_31_236
*1128 TAP_TAPCELL_ROW_31_237
*1129 TAP_TAPCELL_ROW_31_238
*1130 TAP_TAPCELL_ROW_32_239
*1131 TAP_TAPCELL_ROW_32_240
*1132 TAP_TAPCELL_ROW_32_241
*1133 TAP_TAPCELL_ROW_32_242
*1134 TAP_TAPCELL_ROW_32_243
*1135 TAP_TAPCELL_ROW_33_244
*1136 TAP_TAPCELL_ROW_33_245
*1137 TAP_TAPCELL_ROW_33_246
*1138 TAP_TAPCELL_ROW_33_247
*1139 TAP_TAPCELL_ROW_34_248
*1140 TAP_TAPCELL_ROW_34_249
*1141 TAP_TAPCELL_ROW_34_250
*1142 TAP_TAPCELL_ROW_34_251
*1143 TAP_TAPCELL_ROW_34_252
*1144 TAP_TAPCELL_ROW_35_253
*1145 TAP_TAPCELL_ROW_35_254
*1146 TAP_TAPCELL_ROW_35_255
*1147 TAP_TAPCELL_ROW_35_256
*1148 TAP_TAPCELL_ROW_36_257
*1149 TAP_TAPCELL_ROW_36_258
*1150 TAP_TAPCELL_ROW_36_259
*1151 TAP_TAPCELL_ROW_36_260
*1152 TAP_TAPCELL_ROW_36_261
*1153 TAP_TAPCELL_ROW_37_262
*1154 TAP_TAPCELL_ROW_37_263
*1155 TAP_TAPCELL_ROW_37_264
*1156 TAP_TAPCELL_ROW_37_265
*1157 TAP_TAPCELL_ROW_38_266
*1158 TAP_TAPCELL_ROW_38_267
*1159 TAP_TAPCELL_ROW_38_268
*1160 TAP_TAPCELL_ROW_38_269
*1161 TAP_TAPCELL_ROW_38_270
*1162 TAP_TAPCELL_ROW_39_271
*1163 TAP_TAPCELL_ROW_39_272
*1164 TAP_TAPCELL_ROW_39_273
*1165 TAP_TAPCELL_ROW_39_274
*1166 TAP_TAPCELL_ROW_3_109
*1167 TAP_TAPCELL_ROW_3_110
*1168 TAP_TAPCELL_ROW_3_111
*1169 TAP_TAPCELL_ROW_3_112
*1170 TAP_TAPCELL_ROW_40_275
*1171 TAP_TAPCELL_ROW_40_276
*1172 TAP_TAPCELL_ROW_40_277
*1173 TAP_TAPCELL_ROW_40_278
*1174 TAP_TAPCELL_ROW_40_279
*1175 TAP_TAPCELL_ROW_41_280
*1176 TAP_TAPCELL_ROW_41_281
*1177 TAP_TAPCELL_ROW_41_282
*1178 TAP_TAPCELL_ROW_41_283
*1179 TAP_TAPCELL_ROW_42_284
*1180 TAP_TAPCELL_ROW_42_285
*1181 TAP_TAPCELL_ROW_42_286
*1182 TAP_TAPCELL_ROW_42_287
*1183 TAP_TAPCELL_ROW_42_288
*1184 TAP_TAPCELL_ROW_43_289
*1185 TAP_TAPCELL_ROW_43_290
*1186 TAP_TAPCELL_ROW_43_291
*1187 TAP_TAPCELL_ROW_43_292
*1188 TAP_TAPCELL_ROW_44_293
*1189 TAP_TAPCELL_ROW_44_294
*1190 TAP_TAPCELL_ROW_44_295
*1191 TAP_TAPCELL_ROW_44_296
*1192 TAP_TAPCELL_ROW_44_297
*1193 TAP_TAPCELL_ROW_44_298
*1194 TAP_TAPCELL_ROW_44_299
*1195 TAP_TAPCELL_ROW_44_300
*1196 TAP_TAPCELL_ROW_44_301
*1197 TAP_TAPCELL_ROW_44_302
*1198 TAP_TAPCELL_ROW_4_113
*1199 TAP_TAPCELL_ROW_4_114
*1200 TAP_TAPCELL_ROW_4_115
*1201 TAP_TAPCELL_ROW_4_116
*1202 TAP_TAPCELL_ROW_4_117
*1203 TAP_TAPCELL_ROW_5_118
*1204 TAP_TAPCELL_ROW_5_119
*1205 TAP_TAPCELL_ROW_5_120
*1206 TAP_TAPCELL_ROW_5_121
*1207 TAP_TAPCELL_ROW_6_122
*1208 TAP_TAPCELL_ROW_6_123
*1209 TAP_TAPCELL_ROW_6_124
*1210 TAP_TAPCELL_ROW_6_125
*1211 TAP_TAPCELL_ROW_6_126
*1212 TAP_TAPCELL_ROW_7_127
*1213 TAP_TAPCELL_ROW_7_128
*1214 TAP_TAPCELL_ROW_7_129
*1215 TAP_TAPCELL_ROW_7_130
*1216 TAP_TAPCELL_ROW_8_131
*1217 TAP_TAPCELL_ROW_8_132
*1218 TAP_TAPCELL_ROW_8_133
*1219 TAP_TAPCELL_ROW_8_134
*1220 TAP_TAPCELL_ROW_8_135
*1221 TAP_TAPCELL_ROW_9_136
*1222 TAP_TAPCELL_ROW_9_137
*1223 TAP_TAPCELL_ROW_9_138
*1224 TAP_TAPCELL_ROW_9_139
*1225 _115_
*1226 _116_
*1227 _117_
*1228 _118_
*1229 _119_
*1230 _120_
*1231 _121_
*1232 _122_
*1233 _123_
*1234 _124_
*1235 _125_
*1236 _126_
*1237 _127_
*1238 _128_
*1239 _129_
*1240 _130_
*1241 _131_
*1242 _132_
*1243 _133_
*1244 _134_
*1245 _135_
*1246 _136_
*1247 _137_
*1248 _138_
*1249 _139_
*1250 _140_
*1251 _141_
*1252 _142_
*1253 _143_
*1254 _144_
*1255 _145_
*1256 _146_
*1257 _147_
*1258 _148_
*1259 _149_
*1260 _150_
*1261 _151_
*1262 _152_
*1263 _153_
*1264 _154_
*1265 _155_
*1266 _156_
*1267 _157_
*1268 _158_
*1269 _159_
*1270 _160_
*1271 _161_
*1272 _162_
*1273 _163_
*1274 _164_
*1275 _165_
*1276 _166_
*1277 _167_
*1278 _168_
*1279 _169_
*1280 _170_
*1281 _171_
*1282 _172_
*1283 _173_
*1284 _174_
*1285 _175_
*1286 _176_
*1287 _177_
*1288 _178_
*1289 _179_
*1290 _180_
*1291 _181_
*1292 _182_
*1293 _183_
*1294 _184_
*1295 _185_
*1296 _186_
*1297 _187_
*1298 _188_
*1299 _189_
*1300 _190_
*1301 _191_
*1302 _192_
*1303 _193_
*1304 _194_
*1305 _195_
*1306 _196_
*1307 _197_
*1308 _198_
*1309 _199_
*1310 _200_
*1311 _201_
*1312 _202_
*1313 _203_
*1314 _204_
*1315 _205_
*1316 _206_
*1317 _207_
*1318 _208_
*1319 _209_
*1320 _210_
*1321 _211_
*1322 _212_
*1323 _213_
*1324 _214_
*1325 _215_
*1326 _216_
*1327 _217_
*1328 _218_
*1329 _219_
*1330 _220_
*1331 _221_
*1332 _222_
*1333 _223_
*1334 _224_
*1335 _225_
*1336 _226_
*1337 _227_
*1338 _228_
*1339 _229_
*1340 _230_
*1341 _231_
*1342 _232_
*1343 _233_
*1344 _234_
*1345 _235_
*1346 _236_
*1347 _237_
*1348 _238_
*1349 _239_
*1350 _240_
*1351 _241_
*1352 _242_
*1353 _243_
*1354 _244_
*1355 _245_
*1356 _246_
*1357 _247_
*1358 _248_
*1359 _249_
*1360 _250_
*1361 _251_
*1362 _252_
*1363 _253_
*1364 _254_
*1365 _255_
*1366 _256_
*1367 _257_
*1368 _258_
*1369 _259_
*1370 clkbuf_0_clk
*1371 clkbuf_1_0__f_clk
*1372 clkbuf_1_1__f_clk
*1373 output1
*1374 output10
*1375 output11
*1376 output12
*1377 output13
*1378 output14
*1379 output15
*1380 output16
*1381 output17
*1382 output18
*1383 output19
*1384 output2
*1385 output20
*1386 output21
*1387 output22
*1388 output23
*1389 output24
*1390 output25
*1391 output26
*1392 output3
*1393 output4
*1394 output5
*1395 output6
*1396 output7
*1397 output8
*1398 output9

*PORTS
clk I
segm[0] O
segm[10] O
segm[11] O
segm[12] O
segm[13] O
segm[1] O
segm[2] O
segm[3] O
segm[4] O
segm[5] O
segm[6] O
segm[7] O
segm[8] O
segm[9] O
sel[0] O
sel[10] O
sel[11] O
sel[1] O
sel[2] O
sel[3] O
sel[4] O
sel[5] O
sel[6] O
sel[7] O
sel[8] O
sel[9] O

*D_NET *1 0.0163117
*CONN
*P clk I
*I *1370:I I *D gf180mcu_fd_sc_mcu7t5v0__clkbuf_16
*I *210:I I *D gf180mcu_fd_sc_mcu7t5v0__antenna
*CAP
1 clk 0.00273127
2 *1370:I 4.18043e-05
3 *210:I 0
4 *1:17 0.00259605
5 *1:11 0.00528552
6 *1370:I *1226:I 9.76261e-05
7 *1370:I *107:10 0.000298156
8 *1370:I *113:29 0.000883505
9 *1:11 *1381:I 0.00067298
10 *1:17 *1233:A3 0.000427051
11 *1:17 *1343:D 0
12 *1:17 *1344:D 0.00202573
13 *1:17 *52:17 2.37133e-06
14 *1:17 *52:32 6.35457e-05
15 *1:17 *53:14 0
16 *1:17 *53:29 0
17 *1:17 *107:10 4.58772e-05
18 *1:17 *111:12 0.000147162
19 *1:17 *111:27 0.000326616
20 *1:17 *113:29 0.000438819
21 *1:17 *137:24 1.69011e-05
22 *1:17 *146:137 0.000210709
*RES
1 clk *1:11 29.956 
2 *1:11 *1:17 25.48 
3 *1:17 *210:I 9 
4 *1:17 *1370:I 11.392 
*END

*D_NET *2 0.00107077
*CONN
*P segm[0] O
*I *1373:Z O *D gf180mcu_fd_sc_mcu7t5v0__buf_8
*CAP
1 segm[0] 0.000500888
2 *1373:Z 0.000500888
3 segm[0] segm[2] 6.8994e-05
*RES
1 *1373:Z segm[0] 13.108 
*END

*D_NET *3 0.00256768
*CONN
*P segm[10] O
*I *1384:Z O *D gf180mcu_fd_sc_mcu7t5v0__buf_8
*CAP
1 segm[10] 0.00128384
2 *1384:Z 0.00128384
*RES
1 *1384:Z segm[10] 23.016 
*END

*D_NET *4 0.00212124