*SPEF "ieee 1481-1999"
*DESIGN "ita21"
*DATE "11:11:11 Fri 11 11, 1111"
*VENDOR "OpenRCX"
*PROGRAM "Parallel Extraction"
*VERSION "1.0"
*DESIGN_FLOW "NAME_SCOPE LOCAL" "PIN_CAP NONE"
*DIVIDER /
*DELIMITER :
*BUS_DELIMITER []
*T_UNIT 1 NS
*C_UNIT 1 PF
*R_UNIT 1 OHM
*L_UNIT 1 HENRY

*NAME_MAP
*1 clk
*2 segm[0]
*3 segm[10]
*4 segm[11]
*5 segm[12]
*6 segm[13]
*7 segm[1]
*8 segm[2]
*9 segm[3]
*10 segm[4]
*11 segm[5]
*12 segm[6]
*13 segm[7]
*14 segm[8]
*15 segm[9]
*16 sel[0]
*17 sel[10]
*18 sel[11]
*19 sel[1]
*20 sel[2]
*21 sel[3]
*22 sel[4]
*23 sel[5]
*24 sel[6]
*25 sel[7]
*26 sel[8]
*27 sel[9]
*30 _000_
*31 _001_
*32 _002_
*33 _003_
*34 _004_
*35 _005_
*36 _006_
*37 _007_
*38 _008_
*39 _009_
*40 _010_
*41 _011_
*42 _012_
*43 _013_
*44 _014_
*45 _015_
*46 _016_
*47 _017_
*48 _018_
*49 _019_
*50 _020_
*51 _021_
*52 _022_
*53 _023_
*54 _024_
*55 _025_
*56 _026_
*57 _027_
*58 _028_
*59 _029_
*60 _030_
*61 _031_
*62 _032_
*63 _033_
*64 _034_
*65 _035_
*66 _036_
*67 _037_
*68 _038_
*69 _039_
*70 _040_
*71 _041_
*72 _042_
*73 _043_
*74 _044_
*75 _045_
*76 _046_
*77 _047_
*78 _048_
*79 _049_
*80 _050_
*81 _051_
*82 _052_
*83 _053_
*84 _054_
*85 _055_
*86 _056_
*87 _057_
*88 _058_
*89 _059_
*90 _060_
*91 _061_
*92 _062_
*93 _063_
*94 _064_
*95 _065_
*96 _066_
*97 _067_
*98 _068_
*99 _069_
*100 _070_
*101 _071_
*102 _072_
*103 _073_
*104 _074_
*105 _075_
*106 _076_
*107 _077_
*108 _078_
*109 _079_
*110 _080_
*111 _081_
*112 _082_
*113 _083_
*114 _084_
*115 _085_
*116 _086_
*117 _087_
*118 _088_
*119 _089_
*120 _090_
*121 _091_
*122 _092_
*123 _093_
*124 _094_
*125 _095_
*126 _096_
*127 _097_
*128 _098_
*129 _099_
*130 _100_
*131 _101_
*132 _102_
*133 _103_
*134 _104_
*135 _105_
*136 _106_
*137 _107_
*138 _108_
*139 _109_
*140 _110_
*141 _111_
*142 _112_
*143 _113_
*144 _114_
*145 _115_
*146 _116_
*147 _117_
*148 clknet_0_clk
*149 clknet_1_0__leaf_clk
*150 clknet_1_1__leaf_clk
*151 dut21\.count\[0\]
*152 dut21\.count\[1\]
*153 dut21\.count\[2\]
*154 dut21\.count\[3\]
*155 net1
*156 net10
*157 net11
*158 net12
*159 net13
*160 net14
*161 net15
*162 net16
*163 net17
*164 net18
*165 net19
*166 net2
*167 net20
*168 net21
*169 net22
*170 net23
*171 net24
*172 net25
*173 net26
*174 net3
*175 net4
*176 net5
*177 net6
*178 net7
*179 net8
*180 net9
*181 ANTENNA__236__CLK
*182 ANTENNA__237__CLK
*183 ANTENNA__238__CLK
*184 ANTENNA__239__CLK
*185 ANTENNA__240__CLK
*186 ANTENNA__241__CLK
*187 ANTENNA__242__CLK
*188 ANTENNA__243__CLK
*189 ANTENNA__244__CLK
*190 ANTENNA__245__CLK
*191 ANTENNA__246__CLK
*192 ANTENNA__247__CLK
*193 ANTENNA__248__CLK
*194 ANTENNA__249__CLK
*195 ANTENNA__250__CLK
*196 ANTENNA__251__CLK
*197 ANTENNA__252__CLK
*198 ANTENNA__253__CLK
*199 ANTENNA__254__CLK
*200 ANTENNA__255__CLK
*201 ANTENNA__256__CLK
*202 ANTENNA__257__CLK
*203 ANTENNA__258__CLK
*204 ANTENNA__259__CLK
*205 ANTENNA__260__CLK
*206 ANTENNA__261__CLK
*207 ANTENNA__262__CLK
*208 ANTENNA__263__CLK
*209 ANTENNA_clkbuf_0_clk_I
*210 FILLER_0_0_104
*211 FILLER_0_0_138
*212 FILLER_0_0_165
*213 FILLER_0_0_169
*214 FILLER_0_0_172
*215 FILLER_0_0_176
*216 FILLER_0_0_2
*217 FILLER_0_0_232
*218 FILLER_0_0_236
*219 FILLER_0_0_240
*220 FILLER_0_0_274
*221 FILLER_0_0_308
*222 FILLER_0_0_342
*223 FILLER_0_0_346
*224 FILLER_0_0_348
*225 FILLER_0_0_36
*226 FILLER_0_0_70
*227 FILLER_0_10_101
*228 FILLER_0_10_107
*229 FILLER_0_10_171
*230 FILLER_0_10_177
*231 FILLER_0_10_2
*232 FILLER_0_10_241
*233 FILLER_0_10_247
*234 FILLER_0_10_311
*235 FILLER_0_10_317
*236 FILLER_0_10_34
*237 FILLER_0_10_37
*238 FILLER_0_11_136
*239 FILLER_0_11_142
*240 FILLER_0_11_174
*241 FILLER_0_11_190
*242 FILLER_0_11_198
*243 FILLER_0_11_2
*244 FILLER_0_11_202
*245 FILLER_0_11_212
*246 FILLER_0_11_276
*247 FILLER_0_11_282
*248 FILLER_0_11_346
*249 FILLER_0_11_348
*250 FILLER_0_11_66
*251 FILLER_0_11_72
*252 FILLER_0_12_101
*253 FILLER_0_12_107
*254 FILLER_0_12_123
*255 FILLER_0_12_160
*256 FILLER_0_12_164
*257 FILLER_0_12_172
*258 FILLER_0_12_174
*259 FILLER_0_12_177
*260 FILLER_0_12_2
*261 FILLER_0_12_214
*262 FILLER_0_12_218
*263 FILLER_0_12_234
*264 FILLER_0_12_242
*265 FILLER_0_12_244
*266 FILLER_0_12_247
*267 FILLER_0_12_311
*268 FILLER_0_12_317
*269 FILLER_0_12_34
*270 FILLER_0_12_37
*271 FILLER_0_13_136
*272 FILLER_0_13_142
*273 FILLER_0_13_158
*274 FILLER_0_13_166
*275 FILLER_0_13_170
*276 FILLER_0_13_2
*277 FILLER_0_13_200
*278 FILLER_0_13_209
*279 FILLER_0_13_219
*280 FILLER_0_13_249
*281 FILLER_0_13_253
*282 FILLER_0_13_269
*283 FILLER_0_13_277
*284 FILLER_0_13_279
*285 FILLER_0_13_282
*286 FILLER_0_13_346
*287 FILLER_0_13_348
*288 FILLER_0_13_66
*289 FILLER_0_13_72
*290 FILLER_0_14_101
*291 FILLER_0_14_107
*292 FILLER_0_14_139
*293 FILLER_0_14_147
*294 FILLER_0_14_156
*295 FILLER_0_14_172
*296 FILLER_0_14_174
*297 FILLER_0_14_177
*298 FILLER_0_14_181
*299 FILLER_0_14_184
*300 FILLER_0_14_188
*301 FILLER_0_14_190
*302 FILLER_0_14_2
*303 FILLER_0_14_228
*304 FILLER_0_14_232
*305 FILLER_0_14_240
*306 FILLER_0_14_244
*307 FILLER_0_14_247
*308 FILLER_0_14_311
*309 FILLER_0_14_317
*310 FILLER_0_14_34
*311 FILLER_0_14_37
*312 FILLER_0_15_104
*313 FILLER_0_15_106
*314 FILLER_0_15_136
*315 FILLER_0_15_148
*316 FILLER_0_15_152
*317 FILLER_0_15_2
*318 FILLER_0_15_200
*319 FILLER_0_15_209
*320 FILLER_0_15_212
*321 FILLER_0_15_216
*322 FILLER_0_15_232
*323 FILLER_0_15_236
*324 FILLER_0_15_266
*325 FILLER_0_15_270
*326 FILLER_0_15_278
*327 FILLER_0_15_282
*328 FILLER_0_15_314
*329 FILLER_0_15_322
*330 FILLER_0_15_66
*331 FILLER_0_15_72
*332 FILLER_0_16_101
*333 FILLER_0_16_107
*334 FILLER_0_16_115
*335 FILLER_0_16_117
*336 FILLER_0_16_124
*337 FILLER_0_16_132
*338 FILLER_0_16_145
*339 FILLER_0_16_161
*340 FILLER_0_16_165
*341 FILLER_0_16_167
*342 FILLER_0_16_188
*343 FILLER_0_16_192
*344 FILLER_0_16_194
*345 FILLER_0_16_2
*346 FILLER_0_16_201
*347 FILLER_0_16_233
*348 FILLER_0_16_241
*349 FILLER_0_16_247
*350 FILLER_0_16_311
*351 FILLER_0_16_317
*352 FILLER_0_16_34
*353 FILLER_0_16_37
*354 FILLER_0_17_115
*355 FILLER_0_17_119
*356 FILLER_0_17_138
*357 FILLER_0_17_142
*358 FILLER_0_17_154
*359 FILLER_0_17_191
*360 FILLER_0_17_2
*361 FILLER_0_17_207
*362 FILLER_0_17_209
*363 FILLER_0_17_212
*364 FILLER_0_17_228
*365 FILLER_0_17_232
*366 FILLER_0_17_263
*367 FILLER_0_17_267
*368 FILLER_0_17_275
*369 FILLER_0_17_279
*370 FILLER_0_17_282
*371 FILLER_0_17_314
*372 FILLER_0_17_322
*373 FILLER_0_17_66
*374 FILLER_0_17_72
*375 FILLER_0_17_80
*376 FILLER_0_17_84
*377 FILLER_0_18_107
*378 FILLER_0_18_109
*379 FILLER_0_18_123
*380 FILLER_0_18_154
*381 FILLER_0_18_161
*382 FILLER_0_18_190
*383 FILLER_0_18_207
*384 FILLER_0_18_215
*385 FILLER_0_18_244
*386 FILLER_0_18_263
*387 FILLER_0_18_28
*388 FILLER_0_18_295
*389 FILLER_0_18_311
*390 FILLER_0_18_317
*391 FILLER_0_18_32
*392 FILLER_0_18_321
*393 FILLER_0_18_34
*394 FILLER_0_18_37
*395 FILLER_0_18_69
*396 FILLER_0_18_85
*397 FILLER_0_18_93
*398 FILLER_0_18_97
*399 FILLER_0_19_105
*400 FILLER_0_19_109
*401 FILLER_0_19_113
*402 FILLER_0_19_130
*403 FILLER_0_19_166
*404 FILLER_0_19_174
*405 FILLER_0_19_182
*406 FILLER_0_19_2
*407 FILLER_0_19_207
*408 FILLER_0_19_209
*409 FILLER_0_19_212
*410 FILLER_0_19_216
*411 FILLER_0_19_234
*412 FILLER_0_19_236
*413 FILLER_0_19_266
*414 FILLER_0_19_270
*415 FILLER_0_19_278
*416 FILLER_0_19_282
*417 FILLER_0_19_346
*418 FILLER_0_19_348
*419 FILLER_0_19_66
*420 FILLER_0_19_72
*421 FILLER_0_19_88
*422 FILLER_0_19_96
*423 FILLER_0_1_136
*424 FILLER_0_1_142
*425 FILLER_0_1_2
*426 FILLER_0_1_206
*427 FILLER_0_1_238
*428 FILLER_0_1_270
*429 FILLER_0_1_278
*430 FILLER_0_1_282
*431 FILLER_0_1_346
*432 FILLER_0_1_348
*433 FILLER_0_1_66
*434 FILLER_0_1_72
*435 FILLER_0_20_104
*436 FILLER_0_20_113
*437 FILLER_0_20_129
*438 FILLER_0_20_139
*439 FILLER_0_20_143
*440 FILLER_0_20_158
*441 FILLER_0_20_172
*442 FILLER_0_20_174
*443 FILLER_0_20_189
*444 FILLER_0_20_2
*445 FILLER_0_20_206
*446 FILLER_0_20_210
*447 FILLER_0_20_228
*448 FILLER_0_20_253
*449 FILLER_0_20_285
*450 FILLER_0_20_301
*451 FILLER_0_20_309
*452 FILLER_0_20_313
*453 FILLER_0_20_317
*454 FILLER_0_20_34
*455 FILLER_0_20_37
*456 FILLER_0_20_69
*457 FILLER_0_20_73
*458 FILLER_0_21_101
*459 FILLER_0_21_107
*460 FILLER_0_21_137
*461 FILLER_0_21_139
*462 FILLER_0_21_142
*463 FILLER_0_21_144
*464 FILLER_0_21_163
*465 FILLER_0_21_172
*466 FILLER_0_21_176
*467 FILLER_0_21_190
*468 FILLER_0_21_198
*469 FILLER_0_21_202
*470 FILLER_0_21_204
*471 FILLER_0_21_262
*472 FILLER_0_21_278
*473 FILLER_0_21_28
*474 FILLER_0_21_282
*475 FILLER_0_21_346
*476 FILLER_0_21_348
*477 FILLER_0_21_60
*478 FILLER_0_21_68
*479 FILLER_0_21_72
*480 FILLER_0_21_88
*481 FILLER_0_21_92
*482 FILLER_0_21_94
*483 FILLER_0_22_117
*484 FILLER_0_22_133
*485 FILLER_0_22_150
*486 FILLER_0_22_171
*487 FILLER_0_22_2
*488 FILLER_0_22_233
*489 FILLER_0_22_237
*490 FILLER_0_22_244
*491 FILLER_0_22_247
*492 FILLER_0_22_311
*493 FILLER_0_22_317
*494 FILLER_0_22_321
*495 FILLER_0_22_34
*496 FILLER_0_22_37
*497 FILLER_0_22_69
*498 FILLER_0_22_73
*499 FILLER_0_22_75
*500 FILLER_0_23_136
*501 FILLER_0_23_198
*502 FILLER_0_23_206
*503 FILLER_0_23_228
*504 FILLER_0_23_266
*505 FILLER_0_23_270
*506 FILLER_0_23_278
*507 FILLER_0_23_28
*508 FILLER_0_23_282
*509 FILLER_0_23_346
*510 FILLER_0_23_348
*511 FILLER_0_23_60
*512 FILLER_0_23_68
*513 FILLER_0_23_72
*514 FILLER_0_24_101
*515 FILLER_0_24_117
*516 FILLER_0_24_121
*517 FILLER_0_24_123
*518 FILLER_0_24_161
*519 FILLER_0_24_2
*520 FILLER_0_24_221
*521 FILLER_0_24_225
*522 FILLER_0_24_240
*523 FILLER_0_24_244
*524 FILLER_0_24_247
*525 FILLER_0_24_311
*526 FILLER_0_24_317
*527 FILLER_0_24_321
*528 FILLER_0_24_34
*529 FILLER_0_24_37
*530 FILLER_0_25_128
*531 FILLER_0_25_136
*532 FILLER_0_25_142
*533 FILLER_0_25_146
*534 FILLER_0_25_156
*535 FILLER_0_25_160
*536 FILLER_0_25_173
*537 FILLER_0_25_184
*538 FILLER_0_25_198
*539 FILLER_0_25_206
*540 FILLER_0_25_212
*541 FILLER_0_25_220
*542 FILLER_0_25_224
*543 FILLER_0_25_254
*544 FILLER_0_25_258
*545 FILLER_0_25_274
*546 FILLER_0_25_278
*547 FILLER_0_25_28
*548 FILLER_0_25_282
*549 FILLER_0_25_346
*550 FILLER_0_25_348
*551 FILLER_0_25_60
*552 FILLER_0_25_68
*553 FILLER_0_25_72
*554 FILLER_0_25_80
*555 FILLER_0_25_84
*556 FILLER_0_26_101
*557 FILLER_0_26_107
*558 FILLER_0_26_109
*559 FILLER_0_26_116
*560 FILLER_0_26_120
*561 FILLER_0_26_136
*562 FILLER_0_26_140
*563 FILLER_0_26_150
*564 FILLER_0_26_168
*565 FILLER_0_26_172
*566 FILLER_0_26_174
*567 FILLER_0_26_183
*568 FILLER_0_26_199
*569 FILLER_0_26_207
*570 FILLER_0_26_209
*571 FILLER_0_26_216
*572 FILLER_0_26_232
*573 FILLER_0_26_241
*574 FILLER_0_26_247
*575 FILLER_0_26_28
*576 FILLER_0_26_311
*577 FILLER_0_26_317
*578 FILLER_0_26_32
*579 FILLER_0_26_321
*580 FILLER_0_26_34
*581 FILLER_0_26_37
*582 FILLER_0_27_104
*583 FILLER_0_27_112
*584 FILLER_0_27_114
*585 FILLER_0_27_125
*586 FILLER_0_27_133
*587 FILLER_0_27_137
*588 FILLER_0_27_139
*589 FILLER_0_27_142
*590 FILLER_0_27_150
*591 FILLER_0_27_154
*592 FILLER_0_27_185
*593 FILLER_0_27_189
*594 FILLER_0_27_197
*595 FILLER_0_27_201
*596 FILLER_0_27_209
*597 FILLER_0_27_212
*598 FILLER_0_27_228
*599 FILLER_0_27_258
*600 FILLER_0_27_262
*601 FILLER_0_27_278
*602 FILLER_0_27_28
*603 FILLER_0_27_282
*604 FILLER_0_27_346
*605 FILLER_0_27_348
*606 FILLER_0_27_60
*607 FILLER_0_27_68
*608 FILLER_0_27_72
*609 FILLER_0_28_101
*610 FILLER_0_28_142
*611 FILLER_0_28_146
*612 FILLER_0_28_162
*613 FILLER_0_28_170
*614 FILLER_0_28_174
*615 FILLER_0_28_177
*616 FILLER_0_28_185
*617 FILLER_0_28_189
*618 FILLER_0_28_195
*619 FILLER_0_28_203
*620 FILLER_0_28_205
*621 FILLER_0_28_215
*622 FILLER_0_28_225
*623 FILLER_0_28_238
*624 FILLER_0_28_242
*625 FILLER_0_28_244
*626 FILLER_0_28_247
*627 FILLER_0_28_28
*628 FILLER_0_28_311
*629 FILLER_0_28_317
*630 FILLER_0_28_32
*631 FILLER_0_28_321
*632 FILLER_0_28_34
*633 FILLER_0_28_37
*634 FILLER_0_29_104
*635 FILLER_0_29_120
*636 FILLER_0_29_128
*637 FILLER_0_29_136
*638 FILLER_0_29_142
*639 FILLER_0_29_144
*640 FILLER_0_29_153
*641 FILLER_0_29_176
*642 FILLER_0_29_178
*643 FILLER_0_29_2
*644 FILLER_0_29_208
*645 FILLER_0_29_212
*646 FILLER_0_29_214
*647 FILLER_0_29_244
*648 FILLER_0_29_248
*649 FILLER_0_29_282
*650 FILLER_0_29_346
*651 FILLER_0_29_348
*652 FILLER_0_29_66
*653 FILLER_0_29_72
*654 FILLER_0_2_101
*655 FILLER_0_2_107
*656 FILLER_0_2_171
*657 FILLER_0_2_177
*658 FILLER_0_2_2
*659 FILLER_0_2_209
*660 FILLER_0_2_243
*661 FILLER_0_2_247
*662 FILLER_0_2_311
*663 FILLER_0_2_317
*664 FILLER_0_2_34
*665 FILLER_0_2_37
*666 FILLER_0_30_101
*667 FILLER_0_30_107
*668 FILLER_0_30_115
*669 FILLER_0_30_125
*670 FILLER_0_30_169
*671 FILLER_0_30_173
*672 FILLER_0_30_177
*673 FILLER_0_30_185
*674 FILLER_0_30_187
*675 FILLER_0_30_2
*676 FILLER_0_30_224
*677 FILLER_0_30_228
*678 FILLER_0_30_244
*679 FILLER_0_30_247
*680 FILLER_0_30_311
*681 FILLER_0_30_317
*682 FILLER_0_30_34
*683 FILLER_0_30_37
*684 FILLER_0_31_104
*685 FILLER_0_31_142
*686 FILLER_0_31_146
*687 FILLER_0_31_176
*688 FILLER_0_31_180
*689 FILLER_0_31_196
*690 FILLER_0_31_2
*691 FILLER_0_31_204
*692 FILLER_0_31_208
*693 FILLER_0_31_217
*694 FILLER_0_31_225
*695 FILLER_0_31_229
*696 FILLER_0_31_235
*697 FILLER_0_31_267
*698 FILLER_0_31_275
*699 FILLER_0_31_279
*700 FILLER_0_31_282
*701 FILLER_0_31_314
*702 FILLER_0_31_322
*703 FILLER_0_31_66
*704 FILLER_0_31_72
*705 FILLER_0_32_101
*706 FILLER_0_32_107
*707 FILLER_0_32_123
*708 FILLER_0_32_131
*709 FILLER_0_32_133
*710 FILLER_0_32_136
*711 FILLER_0_32_168
*712 FILLER_0_32_172
*713 FILLER_0_32_174
*714 FILLER_0_32_177
*715 FILLER_0_32_2
*716 FILLER_0_32_241
*717 FILLER_0_32_247
*718 FILLER_0_32_311
*719 FILLER_0_32_317
*720 FILLER_0_32_34
*721 FILLER_0_32_37
*722 FILLER_0_33_136
*723 FILLER_0_33_142
*724 FILLER_0_33_2
*725 FILLER_0_33_206
*726 FILLER_0_33_212
*727 FILLER_0_33_276
*728 FILLER_0_33_282
*729 FILLER_0_33_346
*730 FILLER_0_33_348
*731 FILLER_0_33_66
*732 FILLER_0_33_72
*733 FILLER_0_34_101
*734 FILLER_0_34_107
*735 FILLER_0_34_171
*736 FILLER_0_34_177
*737 FILLER_0_34_2
*738 FILLER_0_34_241
*739 FILLER_0_34_247
*740 FILLER_0_34_311
*741 FILLER_0_34_317
*742 FILLER_0_34_34
*743 FILLER_0_34_37
*744 FILLER_0_35_136
*745 FILLER_0_35_142
*746 FILLER_0_35_2
*747 FILLER_0_35_206
*748 FILLER_0_35_212
*749 FILLER_0_35_276
*750 FILLER_0_35_282
*751 FILLER_0_35_346
*752 FILLER_0_35_348
*753 FILLER_0_35_66
*754 FILLER_0_35_72
*755 FILLER_0_36_101
*756 FILLER_0_36_107
*757 FILLER_0_36_171
*758 FILLER_0_36_177
*759 FILLER_0_36_2
*760 FILLER_0_36_241
*761 FILLER_0_36_247
*762 FILLER_0_36_311
*763 FILLER_0_36_317
*764 FILLER_0_36_34
*765 FILLER_0_36_37
*766 FILLER_0_37_136
*767 FILLER_0_37_142
*768 FILLER_0_37_2
*769 FILLER_0_37_206
*770 FILLER_0_37_212
*771 FILLER_0_37_276
*772 FILLER_0_37_282
*773 FILLER_0_37_346
*774 FILLER_0_37_348
*775 FILLER_0_37_66
*776 FILLER_0_37_72
*777 FILLER_0_38_101
*778 FILLER_0_38_107
*779 FILLER_0_38_171
*780 FILLER_0_38_177
*781 FILLER_0_38_2
*782 FILLER_0_38_241
*783 FILLER_0_38_247
*784 FILLER_0_38_311
*785 FILLER_0_38_317
*786 FILLER_0_38_34
*787 FILLER_0_38_37
*788 FILLER_0_39_136
*789 FILLER_0_39_142
*790 FILLER_0_39_2
*791 FILLER_0_39_206
*792 FILLER_0_39_212
*793 FILLER_0_39_276
*794 FILLER_0_39_282
*795 FILLER_0_39_346
*796 FILLER_0_39_348
*797 FILLER_0_39_66
*798 FILLER_0_39_72
*799 FILLER_0_3_136
*800 FILLER_0_3_142
*801 FILLER_0_3_2
*802 FILLER_0_3_206
*803 FILLER_0_3_212
*804 FILLER_0_3_276
*805 FILLER_0_3_282
*806 FILLER_0_3_346
*807 FILLER_0_3_348
*808 FILLER_0_3_66
*809 FILLER_0_3_72
*810 FILLER_0_40_101
*811 FILLER_0_40_107
*812 FILLER_0_40_171
*813 FILLER_0_40_177
*814 FILLER_0_40_2
*815 FILLER_0_40_241
*816 FILLER_0_40_247
*817 FILLER_0_40_311
*818 FILLER_0_40_317
*819 FILLER_0_40_34
*820 FILLER_0_40_37
*821 FILLER_0_41_136
*822 FILLER_0_41_142
*823 FILLER_0_41_2
*824 FILLER_0_41_206
*825 FILLER_0_41_212
*826 FILLER_0_41_276
*827 FILLER_0_41_282
*828 FILLER_0_41_346
*829 FILLER_0_41_348
*830 FILLER_0_41_66
*831 FILLER_0_41_72
*832 FILLER_0_42_101
*833 FILLER_0_42_107
*834 FILLER_0_42_123
*835 FILLER_0_42_153
*836 FILLER_0_42_169
*837 FILLER_0_42_173
*838 FILLER_0_42_177
*839 FILLER_0_42_2
*840 FILLER_0_42_241
*841 FILLER_0_42_247
*842 FILLER_0_42_311
*843 FILLER_0_42_317
*844 FILLER_0_42_34
*845 FILLER_0_42_37
*846 FILLER_0_43_136
*847 FILLER_0_43_142
*848 FILLER_0_43_150
*849 FILLER_0_43_154
*850 FILLER_0_43_156
*851 FILLER_0_43_183
*852 FILLER_0_43_199
*853 FILLER_0_43_2
*854 FILLER_0_43_207
*855 FILLER_0_43_209
*856 FILLER_0_43_212
*857 FILLER_0_43_220
*858 FILLER_0_43_222
*859 FILLER_0_43_249
*860 FILLER_0_43_265
*861 FILLER_0_43_273
*862 FILLER_0_43_277
*863 FILLER_0_43_279
*864 FILLER_0_43_282
*865 FILLER_0_43_346
*866 FILLER_0_43_348
*867 FILLER_0_43_66
*868 FILLER_0_43_72
*869 FILLER_0_44_104
*870 FILLER_0_44_164
*871 FILLER_0_44_168
*872 FILLER_0_44_172
*873 FILLER_0_44_174
*874 FILLER_0_44_2
*875 FILLER_0_44_201
*876 FILLER_0_44_203
*877 FILLER_0_44_232
*878 FILLER_0_44_236
*879 FILLER_0_44_240
*880 FILLER_0_44_274
*881 FILLER_0_44_308
*882 FILLER_0_44_342
*883 FILLER_0_44_346
*884 FILLER_0_44_348
*885 FILLER_0_44_36
*886 FILLER_0_44_70
*887 FILLER_0_4_101
*888 FILLER_0_4_107
*889 FILLER_0_4_171
*890 FILLER_0_4_177
*891 FILLER_0_4_2
*892 FILLER_0_4_241
*893 FILLER_0_4_247
*894 FILLER_0_4_311
*895 FILLER_0_4_317
*896 FILLER_0_4_34
*897 FILLER_0_4_37
*898 FILLER_0_5_136
*899 FILLER_0_5_142
*900 FILLER_0_5_2
*901 FILLER_0_5_206
*902 FILLER_0_5_212
*903 FILLER_0_5_276
*904 FILLER_0_5_282
*905 FILLER_0_5_346
*906 FILLER_0_5_348
*907 FILLER_0_5_66
*908 FILLER_0_5_72
*909 FILLER_0_6_101
*910 FILLER_0_6_107
*911 FILLER_0_6_171
*912 FILLER_0_6_177
*913 FILLER_0_6_2
*914 FILLER_0_6_241
*915 FILLER_0_6_247
*916 FILLER_0_6_311
*917 FILLER_0_6_317
*918 FILLER_0_6_34
*919 FILLER_0_6_37
*920 FILLER_0_7_136
*921 FILLER_0_7_142
*922 FILLER_0_7_2
*923 FILLER_0_7_206
*924 FILLER_0_7_212
*925 FILLER_0_7_276
*926 FILLER_0_7_282
*927 FILLER_0_7_346
*928 FILLER_0_7_348
*929 FILLER_0_7_66
*930 FILLER_0_7_72
*931 FILLER_0_8_101
*932 FILLER_0_8_107
*933 FILLER_0_8_171
*934 FILLER_0_8_177
*935 FILLER_0_8_2
*936 FILLER_0_8_241
*937 FILLER_0_8_247
*938 FILLER_0_8_311
*939 FILLER_0_8_317
*940 FILLER_0_8_34
*941 FILLER_0_8_37
*942 FILLER_0_9_136
*943 FILLER_0_9_142
*944 FILLER_0_9_2
*945 FILLER_0_9_206
*946 FILLER_0_9_212
*947 FILLER_0_9_276
*948 FILLER_0_9_282
*949 FILLER_0_9_346
*950 FILLER_0_9_348
*951 FILLER_0_9_66
*952 FILLER_0_9_72
*953 PHY_EDGE_ROW_0_Left_45
*954 PHY_EDGE_ROW_0_Right_0
*955 PHY_EDGE_ROW_10_Left_55
*956 PHY_EDGE_ROW_10_Right_10
*957 PHY_EDGE_ROW_11_Left_56
*958 PHY_EDGE_ROW_11_Right_11
*959 PHY_EDGE_ROW_12_Left_57
*960 PHY_EDGE_ROW_12_Right_12
*961 PHY_EDGE_ROW_13_Left_58
*962 PHY_EDGE_ROW_13_Right_13
*963 PHY_EDGE_ROW_14_Left_59
*964 PHY_EDGE_ROW_14_Right_14
*965 PHY_EDGE_ROW_15_Left_60
*966 PHY_EDGE_ROW_15_Right_15
*967 PHY_EDGE_ROW_16_Left_61
*968 PHY_EDGE_ROW_16_Right_16
*969 PHY_EDGE_ROW_17_Left_62
*970 PHY_EDGE_ROW_17_Right_17
*971 PHY_EDGE_ROW_18_Left_63
*972 PHY_EDGE_ROW_18_Right_18
*973 PHY_EDGE_ROW_19_Left_64
*974 PHY_EDGE_ROW_19_Right_19
*975 PHY_EDGE_ROW_1_Left_46
*976 PHY_EDGE_ROW_1_Right_1
*977 PHY_EDGE_ROW_20_Left_65
*978 PHY_EDGE_ROW_20_Right_20
*979 PHY_EDGE_ROW_21_Left_66
*980 PHY_EDGE_ROW_21_Right_21
*981 PHY_EDGE_ROW_22_Left_67
*982 PHY_EDGE_ROW_22_Right_22
*983 PHY_EDGE_ROW_23_Left_68
*984 PHY_EDGE_ROW_23_Right_23
*985 PHY_EDGE_ROW_24_Left_69
*986 PHY_EDGE_ROW_24_Right_24
*987 PHY_EDGE_ROW_25_Left_70
*988 PHY_EDGE_ROW_25_Right_25
*989 PHY_EDGE_ROW_26_Left_71
*990 PHY_EDGE_ROW_26_Right_26
*991 PHY_EDGE_ROW_27_Left_72
*992 PHY_EDGE_ROW_27_Right_27
*993 PHY_EDGE_ROW_28_Left_73
*994 PHY_EDGE_ROW_28_Right_28
*995 PHY_EDGE_ROW_29_Left_74
*996 PHY_EDGE_ROW_29_Right_29
*997 PHY_EDGE_ROW_2_Left_47
*998 PHY_EDGE_ROW_2_Right_2
*999 PHY_EDGE_ROW_30_Left_75
*1000 PHY_EDGE_ROW_30_Right_30
*1001 PHY_EDGE_ROW_31_Left_76
*1002 PHY_EDGE_ROW_31_Right_31
*1003 PHY_EDGE_ROW_32_Left_77
*1004 PHY_EDGE_ROW_32_Right_32
*1005 PHY_EDGE_ROW_33_Left_78
*1006 PHY_EDGE_ROW_33_Right_33
*1007 PHY_EDGE_ROW_34_Left_79
*1008 PHY_EDGE_ROW_34_Right_34
*1009 PHY_EDGE_ROW_35_Left_80
*1010 PHY_EDGE_ROW_35_Right_35
*1011 PHY_EDGE_ROW_36_Left_81
*1012 PHY_EDGE_ROW_36_Right_36
*1013 PHY_EDGE_ROW_37_Left_82
*1014 PHY_EDGE_ROW_37_Right_37
*1015 PHY_EDGE_ROW_38_Left_83
*1016 PHY_EDGE_ROW_38_Right_38
*1017 PHY_EDGE_ROW_39_Left_84
*1018 PHY_EDGE_ROW_39_Right_39
*1019 PHY_EDGE_ROW_3_Left_48
*1020 PHY_EDGE_ROW_3_Right_3
*1021 PHY_EDGE_ROW_40_Left_85
*1022 PHY_EDGE_ROW_40_Right_40
*1023 PHY_EDGE_ROW_41_Left_86
*1024 PHY_EDGE_ROW_41_Right_41
*1025 PHY_EDGE_ROW_42_Left_87
*1026 PHY_EDGE_ROW_42_Right_42
*1027 PHY_EDGE_ROW_43_Left_88
*1028 PHY_EDGE_ROW_43_Right_43
*1029 PHY_EDGE_ROW_44_Left_89
*1030 PHY_EDGE_ROW_44_Right_44
*1031 PHY_EDGE_ROW_4_Left_49
*1032 PHY_EDGE_ROW_4_Right_4
*1033 PHY_EDGE_ROW_5_Left_50
*1034 PHY_EDGE_ROW_5_Right_5
*1035 PHY_EDGE_ROW_6_Left_51
*1036 PHY_EDGE_ROW_6_Right_6
*1037 PHY_EDGE_ROW_7_Left_52
*1038 PHY_EDGE_ROW_7_Right_7
*1039 PHY_EDGE_ROW_8_Left_53
*1040 PHY_EDGE_ROW_8_Right_8
*1041 PHY_EDGE_ROW_9_Left_54
*1042 PHY_EDGE_ROW_9_Right_9
*1043 TAP_TAPCELL_ROW_0_90
*1044 TAP_TAPCELL_ROW_0_91
*1045 TAP_TAPCELL_ROW_0_92
*1046 TAP_TAPCELL_ROW_0_93
*1047 TAP_TAPCELL_ROW_0_94
*1048 TAP_TAPCELL_ROW_0_95
*1049 TAP_TAPCELL_ROW_0_96
*1050 TAP_TAPCELL_ROW_0_97
*1051 TAP_TAPCELL_ROW_0_98
*1052 TAP_TAPCELL_ROW_0_99
*1053 TAP_TAPCELL_ROW_10_140
*1054 TAP_TAPCELL_ROW_10_141
*1055 TAP_TAPCELL_ROW_10_142
*1056 TAP_TAPCELL_ROW_10_143
*1057 TAP_TAPCELL_ROW_10_144
*1058 TAP_TAPCELL_ROW_11_145
*1059 TAP_TAPCELL_ROW_11_146
*1060 TAP_TAPCELL_ROW_11_147
*1061 TAP_TAPCELL_ROW_11_148
*1062 TAP_TAPCELL_ROW_12_149
*1063 TAP_TAPCELL_ROW_12_150
*1064 TAP_TAPCELL_ROW_12_151
*1065 TAP_TAPCELL_ROW_12_152
*1066 TAP_TAPCELL_ROW_12_153
*1067 TAP_TAPCELL_ROW_13_154
*1068 TAP_TAPCELL_ROW_13_155
*1069 TAP_TAPCELL_ROW_13_156
*1070 TAP_TAPCELL_ROW_13_157
*1071 TAP_TAPCELL_ROW_14_158
*1072 TAP_TAPCELL_ROW_14_159
*1073 TAP_TAPCELL_ROW_14_160
*1074 TAP_TAPCELL_ROW_14_161
*1075 TAP_TAPCELL_ROW_14_162
*1076 TAP_TAPCELL_ROW_15_163
*1077 TAP_TAPCELL_ROW_15_164
*1078 TAP_TAPCELL_ROW_15_165
*1079 TAP_TAPCELL_ROW_15_166
*1080 TAP_TAPCELL_ROW_16_167
*1081 TAP_TAPCELL_ROW_16_168
*1082 TAP_TAPCELL_ROW_16_169
*1083 TAP_TAPCELL_ROW_16_170
*1084 TAP_TAPCELL_ROW_16_171
*1085 TAP_TAPCELL_ROW_17_172
*1086 TAP_TAPCELL_ROW_17_173
*1087 TAP_TAPCELL_ROW_17_174
*1088 TAP_TAPCELL_ROW_17_175
*1089 TAP_TAPCELL_ROW_18_176
*1090 TAP_TAPCELL_ROW_18_177
*1091 TAP_TAPCELL_ROW_18_178
*1092 TAP_TAPCELL_ROW_18_179
*1093 TAP_TAPCELL_ROW_18_180
*1094 TAP_TAPCELL_ROW_19_181
*1095 TAP_TAPCELL_ROW_19_182
*1096 TAP_TAPCELL_ROW_19_183
*1097 TAP_TAPCELL_ROW_19_184
*1098 TAP_TAPCELL_ROW_1_100
*1099 TAP_TAPCELL_ROW_1_101
*1100 TAP_TAPCELL_ROW_1_102
*1101 TAP_TAPCELL_ROW_1_103
*1102 TAP_TAPCELL_ROW_20_185
*1103 TAP_TAPCELL_ROW_20_186
*1104 TAP_TAPCELL_ROW_20_187
*1105 TAP_TAPCELL_ROW_20_188
*1106 TAP_TAPCELL_ROW_20_189
*1107 TAP_TAPCELL_ROW_21_190
*1108 TAP_TAPCELL_ROW_21_191
*1109 TAP_TAPCELL_ROW_21_192
*1110 TAP_TAPCELL_ROW_21_193
*1111 TAP_TAPCELL_ROW_22_194
*1112 TAP_TAPCELL_ROW_22_195
*1113 TAP_TAPCELL_ROW_22_196
*1114 TAP_TAPCELL_ROW_22_197
*1115 TAP_TAPCELL_ROW_22_198
*1116 TAP_TAPCELL_ROW_23_199
*1117 TAP_TAPCELL_ROW_23_200
*1118 TAP_TAPCELL_ROW_23_201
*1119 TAP_TAPCELL_ROW_23_202
*1120 TAP_TAPCELL_ROW_24_203
*1121 TAP_TAPCELL_ROW_24_204
*1122 TAP_TAPCELL_ROW_24_205
*1123 TAP_TAPCELL_ROW_24_206
*1124 TAP_TAPCELL_ROW_24_207
*1125 TAP_TAPCELL_ROW_25_208
*1126 TAP_TAPCELL_ROW_25_209
*1127 TAP_TAPCELL_ROW_25_210
*1128 TAP_TAPCELL_ROW_25_211
*1129 TAP_TAPCELL_ROW_26_212
*1130 TAP_TAPCELL_ROW_26_213
*1131 TAP_TAPCELL_ROW_26_214
*1132 TAP_TAPCELL_ROW_26_215
*1133 TAP_TAPCELL_ROW_26_216
*1134 TAP_TAPCELL_ROW_27_217
*1135 TAP_TAPCELL_ROW_27_218
*1136 TAP_TAPCELL_ROW_27_219
*1137 TAP_TAPCELL_ROW_27_220
*1138 TAP_TAPCELL_ROW_28_221
*1139 TAP_TAPCELL_ROW_28_222
*1140 TAP_TAPCELL_ROW_28_223
*1141 TAP_TAPCELL_ROW_28_224
*1142 TAP_TAPCELL_ROW_28_225
*1143 TAP_TAPCELL_ROW_29_226
*1144 TAP_TAPCELL_ROW_29_227
*1145 TAP_TAPCELL_ROW_29_228
*1146 TAP_TAPCELL_ROW_29_229
*1147 TAP_TAPCELL_ROW_2_104
*1148 TAP_TAPCELL_ROW_2_105
*1149 TAP_TAPCELL_ROW_2_106
*1150 TAP_TAPCELL_ROW_2_107
*1151 TAP_TAPCELL_ROW_2_108
*1152 TAP_TAPCELL_ROW_30_230
*1153 TAP_TAPCELL_ROW_30_231
*1154 TAP_TAPCELL_ROW_30_232
*1155 TAP_TAPCELL_ROW_30_233
*1156 TAP_TAPCELL_ROW_30_234
*1157 TAP_TAPCELL_ROW_31_235
*1158 TAP_TAPCELL_ROW_31_236
*1159 TAP_TAPCELL_ROW_31_237
*1160 TAP_TAPCELL_ROW_31_238
*1161 TAP_TAPCELL_ROW_32_239
*1162 TAP_TAPCELL_ROW_32_240
*1163 TAP_TAPCELL_ROW_32_241
*1164 TAP_TAPCELL_ROW_32_242
*1165 TAP_TAPCELL_ROW_32_243
*1166 TAP_TAPCELL_ROW_33_244
*1167 TAP_TAPCELL_ROW_33_245
*1168 TAP_TAPCELL_ROW_33_246
*1169 TAP_TAPCELL_ROW_33_247
*1170 TAP_TAPCELL_ROW_34_248
*1171 TAP_TAPCELL_ROW_34_249
*1172 TAP_TAPCELL_ROW_34_250
*1173 TAP_TAPCELL_ROW_34_251
*1174 TAP_TAPCELL_ROW_34_252
*1175 TAP_TAPCELL_ROW_35_253
*1176 TAP_TAPCELL_ROW_35_254
*1177 TAP_TAPCELL_ROW_35_255
*1178 TAP_TAPCELL_ROW_35_256
*1179 TAP_TAPCELL_ROW_36_257
*1180 TAP_TAPCELL_ROW_36_258
*1181 TAP_TAPCELL_ROW_36_259
*1182 TAP_TAPCELL_ROW_36_260
*1183 TAP_TAPCELL_ROW_36_261
*1184 TAP_TAPCELL_ROW_37_262
*1185 TAP_TAPCELL_ROW_37_263
*1186 TAP_TAPCELL_ROW_37_264
*1187 TAP_TAPCELL_ROW_37_265
*1188 TAP_TAPCELL_ROW_38_266
*1189 TAP_TAPCELL_ROW_38_267
*1190 TAP_TAPCELL_ROW_38_268
*1191 TAP_TAPCELL_ROW_38_269
*1192 TAP_TAPCELL_ROW_38_270
*1193 TAP_TAPCELL_ROW_39_271
*1194 TAP_TAPCELL_ROW_39_272
*1195 TAP_TAPCELL_ROW_39_273
*1196 TAP_TAPCELL_ROW_39_274
*1197 TAP_TAPCELL_ROW_3_109
*1198 TAP_TAPCELL_ROW_3_110
*1199 TAP_TAPCELL_ROW_3_111
*1200 TAP_TAPCELL_ROW_3_112
*1201 TAP_TAPCELL_ROW_40_275
*1202 TAP_TAPCELL_ROW_40_276
*1203 TAP_TAPCELL_ROW_40_277
*1204 TAP_TAPCELL_ROW_40_278
*1205 TAP_TAPCELL_ROW_40_279
*1206 TAP_TAPCELL_ROW_41_280
*1207 TAP_TAPCELL_ROW_41_281
*1208 TAP_TAPCELL_ROW_41_282
*1209 TAP_TAPCELL_ROW_41_283
*1210 TAP_TAPCELL_ROW_42_284
*1211 TAP_TAPCELL_ROW_42_285
*1212 TAP_TAPCELL_ROW_42_286
*1213 TAP_TAPCELL_ROW_42_287
*1214 TAP_TAPCELL_ROW_42_288
*1215 TAP_TAPCELL_ROW_43_289
*1216 TAP_TAPCELL_ROW_43_290
*1217 TAP_TAPCELL_ROW_43_291
*1218 TAP_TAPCELL_ROW_43_292
*1219 TAP_TAPCELL_ROW_44_293
*1220 TAP_TAPCELL_ROW_44_294
*1221 TAP_TAPCELL_ROW_44_295
*1222 TAP_TAPCELL_ROW_44_296
*1223 TAP_TAPCELL_ROW_44_297
*1224 TAP_TAPCELL_ROW_44_298
*1225 TAP_TAPCELL_ROW_44_299
*1226 TAP_TAPCELL_ROW_44_300
*1227 TAP_TAPCELL_ROW_44_301
*1228 TAP_TAPCELL_ROW_44_302
*1229 TAP_TAPCELL_ROW_4_113
*1230 TAP_TAPCELL_ROW_4_114
*1231 TAP_TAPCELL_ROW_4_115
*1232 TAP_TAPCELL_ROW_4_116
*1233 TAP_TAPCELL_ROW_4_117
*1234 TAP_TAPCELL_ROW_5_118
*1235 TAP_TAPCELL_ROW_5_119
*1236 TAP_TAPCELL_ROW_5_120
*1237 TAP_TAPCELL_ROW_5_121
*1238 TAP_TAPCELL_ROW_6_122
*1239 TAP_TAPCELL_ROW_6_123
*1240 TAP_TAPCELL_ROW_6_124
*1241 TAP_TAPCELL_ROW_6_125
*1242 TAP_TAPCELL_ROW_6_126
*1243 TAP_TAPCELL_ROW_7_127
*1244 TAP_TAPCELL_ROW_7_128
*1245 TAP_TAPCELL_ROW_7_129
*1246 TAP_TAPCELL_ROW_7_130
*1247 TAP_TAPCELL_ROW_8_131
*1248 TAP_TAPCELL_ROW_8_132
*1249 TAP_TAPCELL_ROW_8_133
*1250 TAP_TAPCELL_ROW_8_134
*1251 TAP_TAPCELL_ROW_8_135
*1252 TAP_TAPCELL_ROW_9_136
*1253 TAP_TAPCELL_ROW_9_137
*1254 TAP_TAPCELL_ROW_9_138
*1255 TAP_TAPCELL_ROW_9_139
*1256 _118_
*1257 _119_
*1258 _120_
*1259 _121_
*1260 _122_
*1261 _123_
*1262 _124_
*1263 _125_
*1264 _126_
*1265 _127_
*1266 _128_
*1267 _129_
*1268 _130_
*1269 _131_
*1270 _132_
*1271 _133_
*1272 _134_
*1273 _135_
*1274 _136_
*1275 _137_
*1276 _138_
*1277 _139_
*1278 _140_
*1279 _141_
*1280 _142_
*1281 _143_
*1282 _144_
*1283 _145_
*1284 _146_
*1285 _147_
*1286 _148_
*1287 _149_
*1288 _150_
*1289 _151_
*1290 _152_
*1291 _153_
*1292 _154_
*1293 _155_
*1294 _156_
*1295 _157_
*1296 _158_
*1297 _159_
*1298 _160_
*1299 _161_
*1300 _162_
*1301 _163_
*1302 _164_
*1303 _165_
*1304 _166_
*1305 _167_
*1306 _168_
*1307 _169_
*1308 _170_
*1309 _171_
*1310 _172_
*1311 _173_
*1312 _174_
*1313 _175_
*1314 _176_
*1315 _177_
*1316 _178_
*1317 _179_
*1318 _180_
*1319 _181_
*1320 _182_
*1321 _183_
*1322 _184_
*1323 _185_
*1324 _186_
*1325 _187_
*1326 _188_
*1327 _189_
*1328 _190_
*1329 _191_
*1330 _192_
*1331 _193_
*1332 _194_
*1333 _195_
*1334 _196_
*1335 _197_
*1336 _198_
*1337 _199_
*1338 _200_
*1339 _201_
*1340 _202_
*1341 _203_
*1342 _204_
*1343 _205_
*1344 _206_
*1345 _207_
*1346 _208_
*1347 _209_
*1348 _210_
*1349 _211_
*1350 _212_
*1351 _213_
*1352 _214_
*1353 _215_
*1354 _216_
*1355 _217_
*1356 _218_
*1357 _219_
*1358 _220_
*1359 _221_
*1360 _222_
*1361 _223_
*1362 _224_
*1363 _225_
*1364 _226_
*1365 _227_
*1366 _228_
*1367 _229_
*1368 _230_
*1369 _231_
*1370 _232_
*1371 _233_
*1372 _234_
*1373 _235_
*1374 _236_
*1375 _237_
*1376 _238_
*1377 _239_
*1378 _240_
*1379 _241_
*1380 _242_
*1381 _243_
*1382 _244_
*1383 _245_
*1384 _246_
*1385 _247_
*1386 _248_
*1387 _249_
*1388 _250_
*1389 _251_
*1390 _252_
*1391 _253_
*1392 _254_
*1393 _255_
*1394 _256_
*1395 _257_
*1396 _258_
*1397 _259_
*1398 _260_
*1399 _261_
*1400 _262_
*1401 _263_
*1402 _264_
*1403 _265_
*1404 clkbuf_0_clk
*1405 clkbuf_1_0__f_clk
*1406 clkbuf_1_1__f_clk
*1407 output1
*1408 output10
*1409 output11
*1410 output12
*1411 output13
*1412 output14
*1413 output15
*1414 output16
*1415 output17
*1416 output18
*1417 output19
*1418 output2
*1419 output20
*1420 output21
*1421 output22
*1422 output23
*1423 output24
*1424 output25
*1425 output26
*1426 output3
*1427 output4
*1428 output5
*1429 output6
*1430 output7
*1431 output8
*1432 output9

*PORTS
clk I
segm[0] O
segm[10] O
segm[11] O
segm[12] O
segm[13] O
segm[1] O
segm[2] O
segm[3] O
segm[4] O
segm[5] O
segm[6] O
segm[7] O
segm[8] O
segm[9] O
sel[0] O
sel[10] O
sel[11] O
sel[1] O
sel[2] O
sel[3] O
sel[4] O
sel[5] O
sel[6] O
sel[7] O
sel[8] O
sel[9] O

*D_NET *1 0.0145496
*CONN
*P clk I
*I *1404:I I *D gf180mcu_fd_sc_mcu7t5v0__clkbuf_16
*I *209:I I *D gf180mcu_fd_sc_mcu7t5v0__antenna
*CAP
1 clk 0.00402592
2 *1404:I 5.63758e-05
3 *209:I 0
4 *1:13 0.0040823
5 *1404:I *128:27 2.0537e-05
6 *1404:I *142:10 9.08447e-05
7 *1:13 *1301:A1 0.000589254
8 *1:13 *1325:A1 0.000170078
9 *1:13 *1337:A1 0.00018764
10 *1:13 *1338:A1 0.00208462
11 *1:13 *1357:A1 0.000277762
12 *1:13 *1360:A2 4.23955e-05
13 *1:13 *1410:I 0.000210547
14 *1:13 *1412:I 0.000502843