*SPEF "ieee 1481-1999"
*DESIGN "ita25"
*DATE "11:11:11 Fri 11 11, 1111"
*VENDOR "OpenRCX"
*PROGRAM "Parallel Extraction"
*VERSION "1.0"
*DESIGN_FLOW "NAME_SCOPE LOCAL" "PIN_CAP NONE"
*DIVIDER /
*DELIMITER :
*BUS_DELIMITER []
*T_UNIT 1 NS
*C_UNIT 1 PF
*R_UNIT 1 OHM
*L_UNIT 1 HENRY

*NAME_MAP
*1 clk
*2 net24
*3 segm[10]
*4 segm[11]
*5 segm[12]
*6 segm[13]
*7 net25
*8 segm[2]
*9 segm[3]
*10 net26
*11 segm[5]
*12 segm[6]
*13 segm[7]
*14 segm[8]
*15 segm[9]
*16 sel[0]
*17 sel[10]
*18 sel[11]
*19 sel[1]
*20 sel[2]
*21 sel[3]
*22 sel[4]
*23 sel[5]
*24 sel[6]
*25 sel[7]
*26 sel[8]
*27 sel[9]
*30 _000_
*31 _001_
*32 _002_
*33 _003_
*34 _004_
*35 _005_
*36 _006_
*37 _007_
*38 _008_
*39 _009_
*40 _010_
*41 _011_
*42 _012_
*43 _013_
*44 _014_
*45 _015_
*46 _016_
*47 _017_
*48 _018_
*49 _019_
*50 _020_
*51 _021_
*52 _022_
*53 _023_
*54 _024_
*55 _025_
*56 _026_
*57 _027_
*58 _028_
*59 _029_
*60 _030_
*61 _031_
*62 _032_
*63 _033_
*64 _034_
*65 _035_
*66 _036_
*67 _037_
*68 _038_
*69 _039_
*70 _040_
*71 _041_
*72 _042_
*73 _043_
*74 _044_
*75 _045_
*76 _046_
*77 _047_
*78 _048_
*79 _049_
*80 _050_
*81 _051_
*82 _052_
*83 _053_
*84 _054_
*85 _055_
*86 _056_
*87 _057_
*88 _058_
*89 _059_
*90 _060_
*91 _061_
*92 _062_
*93 _063_
*94 _064_
*95 _065_
*96 _066_
*97 _067_
*98 _068_
*99 _069_
*100 _070_
*101 _071_
*102 _072_
*103 _073_
*104 _074_
*105 _075_
*106 _076_
*107 _077_
*108 _078_
*109 _079_
*110 _080_
*111 _081_
*112 _082_
*113 _083_
*114 _084_
*115 _085_
*116 _086_
*117 _087_
*118 _088_
*119 _089_
*120 _090_
*121 _091_
*122 _092_
*123 _093_
*124 _094_
*125 _095_
*126 _096_
*127 _097_
*128 _098_
*129 _099_
*130 _100_
*131 _101_
*132 _102_
*133 _103_
*134 _104_
*135 _105_
*136 _106_
*137 _107_
*138 _108_
*139 _109_
*140 _110_
*141 _111_
*142 clknet_0_clk
*143 clknet_1_0__leaf_clk
*144 clknet_1_1__leaf_clk
*145 dut25\.count\[0\]
*146 dut25\.count\[1\]
*147 dut25\.count\[2\]
*148 dut25\.count\[3\]
*149 net1
*150 net10
*151 net11
*152 net12
*153 net13
*154 net14
*155 net15
*156 net16
*157 net17
*158 net18
*159 net19
*160 net2
*161 net20
*162 net21
*163 net22
*164 net23
*165 net3
*166 net4
*167 net5
*168 net6
*169 net7
*170 net8
*171 net9
*172 ANTENNA__160__A1
*173 ANTENNA__200__A1
*174 ANTENNA__201__A1
*175 ANTENNA__224__CLK
*176 ANTENNA__225__CLK
*177 ANTENNA__226__CLK
*178 ANTENNA__227__CLK
*179 ANTENNA__227__D
*180 ANTENNA__228__CLK
*181 ANTENNA__229__CLK
*182 ANTENNA__230__CLK
*183 ANTENNA__231__CLK
*184 ANTENNA__232__CLK
*185 ANTENNA__233__CLK
*186 ANTENNA__234__CLK
*187 ANTENNA__235__CLK
*188 ANTENNA__236__CLK
*189 ANTENNA__237__CLK
*190 ANTENNA__238__CLK
*191 ANTENNA__239__CLK
*192 ANTENNA__240__CLK
*193 ANTENNA__241__CLK
*194 ANTENNA__242__CLK
*195 ANTENNA__243__CLK
*196 ANTENNA__244__CLK
*197 ANTENNA__245__CLK
*198 ANTENNA__246__CLK
*199 ANTENNA__247__CLK
*200 ANTENNA_clkbuf_0_clk_I
*201 FILLER_0_0_104
*202 FILLER_0_0_138
*203 FILLER_0_0_142
*204 FILLER_0_0_198
*205 FILLER_0_0_2
*206 FILLER_0_0_202
*207 FILLER_0_0_232
*208 FILLER_0_0_236
*209 FILLER_0_0_266
*210 FILLER_0_0_270
*211 FILLER_0_0_274
*212 FILLER_0_0_308
*213 FILLER_0_0_342
*214 FILLER_0_0_346
*215 FILLER_0_0_348
*216 FILLER_0_0_36
*217 FILLER_0_0_44
*218 FILLER_0_0_48
*219 FILLER_0_0_53
*220 FILLER_0_0_61
*221 FILLER_0_0_65
*222 FILLER_0_0_67
*223 FILLER_0_0_70
*224 FILLER_0_10_101
*225 FILLER_0_10_107
*226 FILLER_0_10_171
*227 FILLER_0_10_177
*228 FILLER_0_10_2
*229 FILLER_0_10_241
*230 FILLER_0_10_247
*231 FILLER_0_10_311
*232 FILLER_0_10_317
*233 FILLER_0_10_34
*234 FILLER_0_10_37
*235 FILLER_0_11_136
*236 FILLER_0_11_142
*237 FILLER_0_11_158
*238 FILLER_0_11_166
*239 FILLER_0_11_168
*240 FILLER_0_11_198
*241 FILLER_0_11_2
*242 FILLER_0_11_202
*243 FILLER_0_11_212
*244 FILLER_0_11_276
*245 FILLER_0_11_282
*246 FILLER_0_11_346
*247 FILLER_0_11_348
*248 FILLER_0_11_66
*249 FILLER_0_11_72
*250 FILLER_0_12_101
*251 FILLER_0_12_107
*252 FILLER_0_12_139
*253 FILLER_0_12_170
*254 FILLER_0_12_174
*255 FILLER_0_12_183
*256 FILLER_0_12_2
*257 FILLER_0_12_230
*258 FILLER_0_12_238
*259 FILLER_0_12_242
*260 FILLER_0_12_244
*261 FILLER_0_12_247
*262 FILLER_0_12_311
*263 FILLER_0_12_317
*264 FILLER_0_12_34
*265 FILLER_0_12_37
*266 FILLER_0_13_104
*267 FILLER_0_13_120
*268 FILLER_0_13_128
*269 FILLER_0_13_132
*270 FILLER_0_13_142
*271 FILLER_0_13_146
*272 FILLER_0_13_155
*273 FILLER_0_13_172
*274 FILLER_0_13_180
*275 FILLER_0_13_184
*276 FILLER_0_13_186
*277 FILLER_0_13_193
*278 FILLER_0_13_2
*279 FILLER_0_13_209
*280 FILLER_0_13_218
*281 FILLER_0_13_250
*282 FILLER_0_13_266
*283 FILLER_0_13_274
*284 FILLER_0_13_278
*285 FILLER_0_13_282
*286 FILLER_0_13_346
*287 FILLER_0_13_348
*288 FILLER_0_13_66
*289 FILLER_0_13_72
*290 FILLER_0_14_101
*291 FILLER_0_14_107
*292 FILLER_0_14_115
*293 FILLER_0_14_148
*294 FILLER_0_14_152
*295 FILLER_0_14_160
*296 FILLER_0_14_164
*297 FILLER_0_14_177
*298 FILLER_0_14_2
*299 FILLER_0_14_208
*300 FILLER_0_14_212
*301 FILLER_0_14_214
*302 FILLER_0_14_221
*303 FILLER_0_14_237
*304 FILLER_0_14_247
*305 FILLER_0_14_311
*306 FILLER_0_14_317
*307 FILLER_0_14_34
*308 FILLER_0_14_37
*309 FILLER_0_15_104
*310 FILLER_0_15_108
*311 FILLER_0_15_110
*312 FILLER_0_15_142
*313 FILLER_0_15_154
*314 FILLER_0_15_156
*315 FILLER_0_15_165
*316 FILLER_0_15_174
*317 FILLER_0_15_190
*318 FILLER_0_15_2
*319 FILLER_0_15_204
*320 FILLER_0_15_212
*321 FILLER_0_15_214
*322 FILLER_0_15_244
*323 FILLER_0_15_276
*324 FILLER_0_15_282
*325 FILLER_0_15_346
*326 FILLER_0_15_348
*327 FILLER_0_15_66
*328 FILLER_0_15_72
*329 FILLER_0_16_101
*330 FILLER_0_16_107
*331 FILLER_0_16_139
*332 FILLER_0_16_159
*333 FILLER_0_16_163
*334 FILLER_0_16_165
*335 FILLER_0_16_186
*336 FILLER_0_16_2
*337 FILLER_0_16_226
*338 FILLER_0_16_233
*339 FILLER_0_16_241
*340 FILLER_0_16_247
*341 FILLER_0_16_311
*342 FILLER_0_16_317
*343 FILLER_0_16_321
*344 FILLER_0_16_34
*345 FILLER_0_16_37
*346 FILLER_0_17_124
*347 FILLER_0_17_128
*348 FILLER_0_17_132
*349 FILLER_0_17_134
*350 FILLER_0_17_139
*351 FILLER_0_17_146
*352 FILLER_0_17_150
*353 FILLER_0_17_2
*354 FILLER_0_17_206
*355 FILLER_0_17_212
*356 FILLER_0_17_245
*357 FILLER_0_17_277
*358 FILLER_0_17_279
*359 FILLER_0_17_282
*360 FILLER_0_17_346
*361 FILLER_0_17_348
*362 FILLER_0_17_66
*363 FILLER_0_17_72
*364 FILLER_0_17_88
*365 FILLER_0_17_92
*366 FILLER_0_17_94
*367 FILLER_0_18_101
*368 FILLER_0_18_107
*369 FILLER_0_18_115
*370 FILLER_0_18_119
*371 FILLER_0_18_126
*372 FILLER_0_18_128
*373 FILLER_0_18_135
*374 FILLER_0_18_177
*375 FILLER_0_18_192
*376 FILLER_0_18_194
*377 FILLER_0_18_2
*378 FILLER_0_18_201
*379 FILLER_0_18_217
*380 FILLER_0_18_219
*381 FILLER_0_18_236
*382 FILLER_0_18_244
*383 FILLER_0_18_247
*384 FILLER_0_18_311
*385 FILLER_0_18_317
*386 FILLER_0_18_321
*387 FILLER_0_18_34
*388 FILLER_0_18_37
*389 FILLER_0_19_120
*390 FILLER_0_19_142
*391 FILLER_0_19_146
*392 FILLER_0_19_173
*393 FILLER_0_19_183
*394 FILLER_0_19_198
*395 FILLER_0_19_2
*396 FILLER_0_19_206
*397 FILLER_0_19_212
*398 FILLER_0_19_245
*399 FILLER_0_19_277
*400 FILLER_0_19_279
*401 FILLER_0_19_282
*402 FILLER_0_19_346
*403 FILLER_0_19_348
*404 FILLER_0_19_66
*405 FILLER_0_19_72
*406 FILLER_0_19_88
*407 FILLER_0_19_90
*408 FILLER_0_1_136
*409 FILLER_0_1_142
*410 FILLER_0_1_144
*411 FILLER_0_1_171
*412 FILLER_0_1_2
*413 FILLER_0_1_203
*414 FILLER_0_1_207
*415 FILLER_0_1_209
*416 FILLER_0_1_238
*417 FILLER_0_1_270
*418 FILLER_0_1_278
*419 FILLER_0_1_282
*420 FILLER_0_1_346
*421 FILLER_0_1_348
*422 FILLER_0_1_66
*423 FILLER_0_1_72
*424 FILLER_0_20_101
*425 FILLER_0_20_107
*426 FILLER_0_20_123
*427 FILLER_0_20_125
*428 FILLER_0_20_140
*429 FILLER_0_20_144
*430 FILLER_0_20_174
*431 FILLER_0_20_2
*432 FILLER_0_20_205
*433 FILLER_0_20_207
*434 FILLER_0_20_214
*435 FILLER_0_20_226
*436 FILLER_0_20_235
*437 FILLER_0_20_243
*438 FILLER_0_20_247
*439 FILLER_0_20_311
*440 FILLER_0_20_317
*441 FILLER_0_20_321
*442 FILLER_0_20_34
*443 FILLER_0_20_37
*444 FILLER_0_21_104
*445 FILLER_0_21_106
*446 FILLER_0_21_109
*447 FILLER_0_21_117
*448 FILLER_0_21_119
*449 FILLER_0_21_138
*450 FILLER_0_21_198
*451 FILLER_0_21_2
*452 FILLER_0_21_202
*453 FILLER_0_21_212
*454 FILLER_0_21_214
*455 FILLER_0_21_225
*456 FILLER_0_21_236
*457 FILLER_0_21_268
*458 FILLER_0_21_276
*459 FILLER_0_21_282
*460 FILLER_0_21_346
*461 FILLER_0_21_348
*462 FILLER_0_21_66
*463 FILLER_0_21_72
*464 FILLER_0_22_107
*465 FILLER_0_22_137
*466 FILLER_0_22_145
*467 FILLER_0_22_161
*468 FILLER_0_22_173
*469 FILLER_0_22_183
*470 FILLER_0_22_196
*471 FILLER_0_22_198
*472 FILLER_0_22_2
*473 FILLER_0_22_206
*474 FILLER_0_22_253
*475 FILLER_0_22_285
*476 FILLER_0_22_301
*477 FILLER_0_22_309
*478 FILLER_0_22_313
*479 FILLER_0_22_317
*480 FILLER_0_22_321
*481 FILLER_0_22_34
*482 FILLER_0_22_37
*483 FILLER_0_22_69
*484 FILLER_0_22_73
*485 FILLER_0_22_75
*486 FILLER_0_23_104
*487 FILLER_0_23_107
*488 FILLER_0_23_111
*489 FILLER_0_23_117
*490 FILLER_0_23_119
*491 FILLER_0_23_126
*492 FILLER_0_23_128
*493 FILLER_0_23_139
*494 FILLER_0_23_166
*495 FILLER_0_23_168
*496 FILLER_0_23_175
*497 FILLER_0_23_2
*498 FILLER_0_23_212
*499 FILLER_0_23_216
*500 FILLER_0_23_232
*501 FILLER_0_23_264
*502 FILLER_0_23_282
*503 FILLER_0_23_314
*504 FILLER_0_23_322
*505 FILLER_0_23_66
*506 FILLER_0_23_72
*507 FILLER_0_24_107
*508 FILLER_0_24_123
*509 FILLER_0_24_155
*510 FILLER_0_24_165
*511 FILLER_0_24_174
*512 FILLER_0_24_177
*513 FILLER_0_24_2
*514 FILLER_0_24_210
*515 FILLER_0_24_214
*516 FILLER_0_24_247
*517 FILLER_0_24_311
*518 FILLER_0_24_317
*519 FILLER_0_24_321
*520 FILLER_0_24_34
*521 FILLER_0_24_37
*522 FILLER_0_24_69
*523 FILLER_0_24_73
*524 FILLER_0_24_75
*525 FILLER_0_25_113
*526 FILLER_0_25_117
*527 FILLER_0_25_126
*528 FILLER_0_25_130
*529 FILLER_0_25_134
*530 FILLER_0_25_2
*531 FILLER_0_25_204
*532 FILLER_0_25_208
*533 FILLER_0_25_212
*534 FILLER_0_25_236
*535 FILLER_0_25_268
*536 FILLER_0_25_276
*537 FILLER_0_25_282
*538 FILLER_0_25_314
*539 FILLER_0_25_322
*540 FILLER_0_25_66
*541 FILLER_0_25_72
*542 FILLER_0_25_80
*543 FILLER_0_26_101
*544 FILLER_0_26_130
*545 FILLER_0_26_162
*546 FILLER_0_26_164
*547 FILLER_0_26_171
*548 FILLER_0_26_182
*549 FILLER_0_26_186
*550 FILLER_0_26_198
*551 FILLER_0_26_2
*552 FILLER_0_26_214
*553 FILLER_0_26_216
*554 FILLER_0_26_222
*555 FILLER_0_26_238
*556 FILLER_0_26_242
*557 FILLER_0_26_244
*558 FILLER_0_26_247
*559 FILLER_0_26_311
*560 FILLER_0_26_317
*561 FILLER_0_26_34
*562 FILLER_0_26_37
*563 FILLER_0_27_122
*564 FILLER_0_27_130
*565 FILLER_0_27_138
*566 FILLER_0_27_142
*567 FILLER_0_27_171
*568 FILLER_0_27_175
*569 FILLER_0_27_183
*570 FILLER_0_27_199
*571 FILLER_0_27_2
*572 FILLER_0_27_207
*573 FILLER_0_27_209
*574 FILLER_0_27_212
*575 FILLER_0_27_224
*576 FILLER_0_27_228
*577 FILLER_0_27_234
*578 FILLER_0_27_266
*579 FILLER_0_27_274
*580 FILLER_0_27_278
*581 FILLER_0_27_282
*582 FILLER_0_27_346
*583 FILLER_0_27_348
*584 FILLER_0_27_66
*585 FILLER_0_27_72
*586 FILLER_0_27_88
*587 FILLER_0_27_92
*588 FILLER_0_28_101
*589 FILLER_0_28_107
*590 FILLER_0_28_109
*591 FILLER_0_28_116
*592 FILLER_0_28_138
*593 FILLER_0_28_170
*594 FILLER_0_28_174
*595 FILLER_0_28_177
*596 FILLER_0_28_195
*597 FILLER_0_28_199
*598 FILLER_0_28_242
*599 FILLER_0_28_244
*600 FILLER_0_28_247
*601 FILLER_0_28_28
*602 FILLER_0_28_311
*603 FILLER_0_28_317
*604 FILLER_0_28_32
*605 FILLER_0_28_321
*606 FILLER_0_28_34
*607 FILLER_0_28_37
*608 FILLER_0_29_104
*609 FILLER_0_29_108
*610 FILLER_0_29_110
*611 FILLER_0_29_142
*612 FILLER_0_29_146
*613 FILLER_0_29_154
*614 FILLER_0_29_164
*615 FILLER_0_29_166
*616 FILLER_0_29_176
*617 FILLER_0_29_206
*618 FILLER_0_29_247
*619 FILLER_0_29_279
*620 FILLER_0_29_28
*621 FILLER_0_29_282
*622 FILLER_0_29_314
*623 FILLER_0_29_322
*624 FILLER_0_29_60
*625 FILLER_0_29_68
*626 FILLER_0_29_72
*627 FILLER_0_2_101
*628 FILLER_0_2_107
*629 FILLER_0_2_171
*630 FILLER_0_2_177
*631 FILLER_0_2_2
*632 FILLER_0_2_241
*633 FILLER_0_2_247
*634 FILLER_0_2_311
*635 FILLER_0_2_317
*636 FILLER_0_2_34
*637 FILLER_0_2_37
*638 FILLER_0_30_101
*639 FILLER_0_30_107
*640 FILLER_0_30_123
*641 FILLER_0_30_131
*642 FILLER_0_30_135
*643 FILLER_0_30_171
*644 FILLER_0_30_182
*645 FILLER_0_30_198
*646 FILLER_0_30_2
*647 FILLER_0_30_206
*648 FILLER_0_30_212
*649 FILLER_0_30_220
*650 FILLER_0_30_224
*651 FILLER_0_30_230
*652 FILLER_0_30_238
*653 FILLER_0_30_242
*654 FILLER_0_30_244
*655 FILLER_0_30_247
*656 FILLER_0_30_311
*657 FILLER_0_30_317
*658 FILLER_0_30_321
*659 FILLER_0_30_34
*660 FILLER_0_30_37
*661 FILLER_0_31_136
*662 FILLER_0_31_142
*663 FILLER_0_31_150
*664 FILLER_0_31_189
*665 FILLER_0_31_193
*666 FILLER_0_31_2
*667 FILLER_0_31_209
*668 FILLER_0_31_212
*669 FILLER_0_31_276
*670 FILLER_0_31_282
*671 FILLER_0_31_346
*672 FILLER_0_31_348
*673 FILLER_0_31_66
*674 FILLER_0_31_72
*675 FILLER_0_32_101
*676 FILLER_0_32_107
*677 FILLER_0_32_171
*678 FILLER_0_32_177
*679 FILLER_0_32_2
*680 FILLER_0_32_241
*681 FILLER_0_32_247
*682 FILLER_0_32_311
*683 FILLER_0_32_317
*684 FILLER_0_32_34
*685 FILLER_0_32_37
*686 FILLER_0_33_136
*687 FILLER_0_33_142
*688 FILLER_0_33_2
*689 FILLER_0_33_206
*690 FILLER_0_33_212
*691 FILLER_0_33_276
*692 FILLER_0_33_282
*693 FILLER_0_33_346
*694 FILLER_0_33_348
*695 FILLER_0_33_66
*696 FILLER_0_33_72
*697 FILLER_0_34_101
*698 FILLER_0_34_107
*699 FILLER_0_34_171
*700 FILLER_0_34_177
*701 FILLER_0_34_2
*702 FILLER_0_34_241
*703 FILLER_0_34_247
*704 FILLER_0_34_311
*705 FILLER_0_34_317
*706 FILLER_0_34_34
*707 FILLER_0_34_37
*708 FILLER_0_35_136
*709 FILLER_0_35_142
*710 FILLER_0_35_2
*711 FILLER_0_35_206
*712 FILLER_0_35_212
*713 FILLER_0_35_276
*714 FILLER_0_35_282
*715 FILLER_0_35_346
*716 FILLER_0_35_348
*717 FILLER_0_35_66
*718 FILLER_0_35_72
*719 FILLER_0_36_101
*720 FILLER_0_36_107
*721 FILLER_0_36_171
*722 FILLER_0_36_177
*723 FILLER_0_36_2
*724 FILLER_0_36_241
*725 FILLER_0_36_247
*726 FILLER_0_36_311
*727 FILLER_0_36_317
*728 FILLER_0_36_34
*729 FILLER_0_36_37
*730 FILLER_0_37_136
*731 FILLER_0_37_142
*732 FILLER_0_37_2
*733 FILLER_0_37_206
*734 FILLER_0_37_212
*735 FILLER_0_37_276
*736 FILLER_0_37_282
*737 FILLER_0_37_346
*738 FILLER_0_37_348
*739 FILLER_0_37_66
*740 FILLER_0_37_72
*741 FILLER_0_38_101
*742 FILLER_0_38_107
*743 FILLER_0_38_171
*744 FILLER_0_38_177
*745 FILLER_0_38_2
*746 FILLER_0_38_241
*747 FILLER_0_38_247
*748 FILLER_0_38_311
*749 FILLER_0_38_317
*750 FILLER_0_38_34
*751 FILLER_0_38_37
*752 FILLER_0_39_136
*753 FILLER_0_39_142
*754 FILLER_0_39_2
*755 FILLER_0_39_206
*756 FILLER_0_39_212
*757 FILLER_0_39_276
*758 FILLER_0_39_282
*759 FILLER_0_39_346
*760 FILLER_0_39_348
*761 FILLER_0_39_66
*762 FILLER_0_39_72
*763 FILLER_0_3_136
*764 FILLER_0_3_142
*765 FILLER_0_3_2
*766 FILLER_0_3_206
*767 FILLER_0_3_212
*768 FILLER_0_3_276
*769 FILLER_0_3_282
*770 FILLER_0_3_346
*771 FILLER_0_3_348
*772 FILLER_0_3_66
*773 FILLER_0_3_72
*774 FILLER_0_40_101
*775 FILLER_0_40_107
*776 FILLER_0_40_171
*777 FILLER_0_40_177
*778 FILLER_0_40_2
*779 FILLER_0_40_241
*780 FILLER_0_40_247
*781 FILLER_0_40_311
*782 FILLER_0_40_317
*783 FILLER_0_40_333
*784 FILLER_0_40_34
*785 FILLER_0_40_341
*786 FILLER_0_40_37
*787 FILLER_0_41_136
*788 FILLER_0_41_142
*789 FILLER_0_41_2
*790 FILLER_0_41_206
*791 FILLER_0_41_212
*792 FILLER_0_41_276
*793 FILLER_0_41_282
*794 FILLER_0_41_346
*795 FILLER_0_41_348
*796 FILLER_0_41_66
*797 FILLER_0_41_72
*798 FILLER_0_42_101
*799 FILLER_0_42_107
*800 FILLER_0_42_171
*801 FILLER_0_42_177
*802 FILLER_0_42_2
*803 FILLER_0_42_241
*804 FILLER_0_42_247
*805 FILLER_0_42_311
*806 FILLER_0_42_317
*807 FILLER_0_42_34
*808 FILLER_0_42_37
*809 FILLER_0_43_136
*810 FILLER_0_43_142
*811 FILLER_0_43_144
*812 FILLER_0_43_171
*813 FILLER_0_43_2
*814 FILLER_0_43_201
*815 FILLER_0_43_209
*816 FILLER_0_43_212
*817 FILLER_0_43_276
*818 FILLER_0_43_282
*819 FILLER_0_43_346
*820 FILLER_0_43_348
*821 FILLER_0_43_66
*822 FILLER_0_43_72
*823 FILLER_0_44_104
*824 FILLER_0_44_138
*825 FILLER_0_44_142
*826 FILLER_0_44_172
*827 FILLER_0_44_2
*828 FILLER_0_44_232
*829 FILLER_0_44_236
*830 FILLER_0_44_240
*831 FILLER_0_44_274
*832 FILLER_0_44_308
*833 FILLER_0_44_342
*834 FILLER_0_44_346
*835 FILLER_0_44_348
*836 FILLER_0_44_36
*837 FILLER_0_44_70
*838 FILLER_0_4_101
*839 FILLER_0_4_107
*840 FILLER_0_4_171
*841 FILLER_0_4_177
*842 FILLER_0_4_2
*843 FILLER_0_4_241
*844 FILLER_0_4_247
*845 FILLER_0_4_311
*846 FILLER_0_4_317
*847 FILLER_0_4_34
*848 FILLER_0_4_37
*849 FILLER_0_5_136
*850 FILLER_0_5_142
*851 FILLER_0_5_2
*852 FILLER_0_5_206
*853 FILLER_0_5_212
*854 FILLER_0_5_276
*855 FILLER_0_5_282
*856 FILLER_0_5_346
*857 FILLER_0_5_348
*858 FILLER_0_5_66
*859 FILLER_0_5_72
*860 FILLER_0_6_101
*861 FILLER_0_6_107
*862 FILLER_0_6_171
*863 FILLER_0_6_177
*864 FILLER_0_6_2
*865 FILLER_0_6_241
*866 FILLER_0_6_247
*867 FILLER_0_6_311
*868 FILLER_0_6_317
*869 FILLER_0_6_34
*870 FILLER_0_6_37
*871 FILLER_0_7_136
*872 FILLER_0_7_142
*873 FILLER_0_7_2
*874 FILLER_0_7_206
*875 FILLER_0_7_212
*876 FILLER_0_7_276
*877 FILLER_0_7_282
*878 FILLER_0_7_346
*879 FILLER_0_7_348
*880 FILLER_0_7_66
*881 FILLER_0_7_72
*882 FILLER_0_8_101
*883 FILLER_0_8_107
*884 FILLER_0_8_171
*885 FILLER_0_8_177
*886 FILLER_0_8_2
*887 FILLER_0_8_241
*888 FILLER_0_8_247
*889 FILLER_0_8_311
*890 FILLER_0_8_317
*891 FILLER_0_8_34
*892 FILLER_0_8_37
*893 FILLER_0_9_136
*894 FILLER_0_9_142
*895 FILLER_0_9_2
*896 FILLER_0_9_206
*897 FILLER_0_9_212
*898 FILLER_0_9_276
*899 FILLER_0_9_282
*900 FILLER_0_9_346
*901 FILLER_0_9_348
*902 FILLER_0_9_66
*903 FILLER_0_9_72
*904 PHY_EDGE_ROW_0_Left_45
*905 PHY_EDGE_ROW_0_Right_0
*906 PHY_EDGE_ROW_10_Left_55
*907 PHY_EDGE_ROW_10_Right_10
*908 PHY_EDGE_ROW_11_Left_56
*909 PHY_EDGE_ROW_11_Right_11
*910 PHY_EDGE_ROW_12_Left_57
*911 PHY_EDGE_ROW_12_Right_12
*912 PHY_EDGE_ROW_13_Left_58
*913 PHY_EDGE_ROW_13_Right_13
*914 PHY_EDGE_ROW_14_Left_59
*915 PHY_EDGE_ROW_14_Right_14
*916 PHY_EDGE_ROW_15_Left_60
*917 PHY_EDGE_ROW_15_Right_15
*918 PHY_EDGE_ROW_16_Left_61
*919 PHY_EDGE_ROW_16_Right_16
*920 PHY_EDGE_ROW_17_Left_62
*921 PHY_EDGE_ROW_17_Right_17
*922 PHY_EDGE_ROW_18_Left_63
*923 PHY_EDGE_ROW_18_Right_18
*924 PHY_EDGE_ROW_19_Left_64
*925 PHY_EDGE_ROW_19_Right_19
*926 PHY_EDGE_ROW_1_Left_46
*927 PHY_EDGE_ROW_1_Right_1
*928 PHY_EDGE_ROW_20_Left_65
*929 PHY_EDGE_ROW_20_Right_20
*930 PHY_EDGE_ROW_21_Left_66
*931 PHY_EDGE_ROW_21_Right_21
*932 PHY_EDGE_ROW_22_Left_67
*933 PHY_EDGE_ROW_22_Right_22
*934 PHY_EDGE_ROW_23_Left_68
*935 PHY_EDGE_ROW_23_Right_23
*936 PHY_EDGE_ROW_24_Left_69
*937 PHY_EDGE_ROW_24_Right_24
*938 PHY_EDGE_ROW_25_Left_70
*939 PHY_EDGE_ROW_25_Right_25
*940 PHY_EDGE_ROW_26_Left_71
*941 PHY_EDGE_ROW_26_Right_26
*942 PHY_EDGE_ROW_27_Left_72
*943 PHY_EDGE_ROW_27_Right_27
*944 PHY_EDGE_ROW_28_Left_73
*945 PHY_EDGE_ROW_28_Right_28
*946 PHY_EDGE_ROW_29_Left_74
*947 PHY_EDGE_ROW_29_Right_29
*948 PHY_EDGE_ROW_2_Left_47
*949 PHY_EDGE_ROW_2_Right_2
*950 PHY_EDGE_ROW_30_Left_75
*951 PHY_EDGE_ROW_30_Right_30
*952 PHY_EDGE_ROW_31_Left_76
*953 PHY_EDGE_ROW_31_Right_31
*954 PHY_EDGE_ROW_32_Left_77
*955 PHY_EDGE_ROW_32_Right_32
*956 PHY_EDGE_ROW_33_Left_78
*957 PHY_EDGE_ROW_33_Right_33
*958 PHY_EDGE_ROW_34_Left_79
*959 PHY_EDGE_ROW_34_Right_34
*960 PHY_EDGE_ROW_35_Left_80
*961 PHY_EDGE_ROW_35_Right_35
*962 PHY_EDGE_ROW_36_Left_81
*963 PHY_EDGE_ROW_36_Right_36
*964 PHY_EDGE_ROW_37_Left_82
*965 PHY_EDGE_ROW_37_Right_37
*966 PHY_EDGE_ROW_38_Left_83
*967 PHY_EDGE_ROW_38_Right_38
*968 PHY_EDGE_ROW_39_Left_84
*969 PHY_EDGE_ROW_39_Right_39
*970 PHY_EDGE_ROW_3_Left_48
*971 PHY_EDGE_ROW_3_Right_3
*972 PHY_EDGE_ROW_40_Left_85
*973 PHY_EDGE_ROW_40_Right_40
*974 PHY_EDGE_ROW_41_Left_86
*975 PHY_EDGE_ROW_41_Right_41
*976 PHY_EDGE_ROW_42_Left_87
*977 PHY_EDGE_ROW_42_Right_42
*978 PHY_EDGE_ROW_43_Left_88
*979 PHY_EDGE_ROW_43_Right_43
*980 PHY_EDGE_ROW_44_Left_89
*981 PHY_EDGE_ROW_44_Right_44
*982 PHY_EDGE_ROW_4_Left_49
*983 PHY_EDGE_ROW_4_Right_4
*984 PHY_EDGE_ROW_5_Left_50
*985 PHY_EDGE_ROW_5_Right_5
*986 PHY_EDGE_ROW_6_Left_51
*987 PHY_EDGE_ROW_6_Right_6
*988 PHY_EDGE_ROW_7_Left_52
*989 PHY_EDGE_ROW_7_Right_7
*990 PHY_EDGE_ROW_8_Left_53
*991 PHY_EDGE_ROW_8_Right_8
*992 PHY_EDGE_ROW_9_Left_54
*993 PHY_EDGE_ROW_9_Right_9
*994 TAP_TAPCELL_ROW_0_90
*995 TAP_TAPCELL_ROW_0_91
*996 TAP_TAPCELL_ROW_0_92
*997 TAP_TAPCELL_ROW_0_93
*998 TAP_TAPCELL_ROW_0_94
*999 TAP_TAPCELL_ROW_0_95
*1000 TAP_TAPCELL_ROW_0_96
*1001 TAP_TAPCELL_ROW_0_97
*1002 TAP_TAPCELL_ROW_0_98
*1003 TAP_TAPCELL_ROW_0_99
*1004 TAP_TAPCELL_ROW_10_140
*1005 TAP_TAPCELL_ROW_10_141
*1006 TAP_TAPCELL_ROW_10_142
*1007 TAP_TAPCELL_ROW_10_143
*1008 TAP_TAPCELL_ROW_10_144
*1009 TAP_TAPCELL_ROW_11_145
*1010 TAP_TAPCELL_ROW_11_146
*1011 TAP_TAPCELL_ROW_11_147
*1012 TAP_TAPCELL_ROW_11_148
*1013 TAP_TAPCELL_ROW_12_149
*1014 TAP_TAPCELL_ROW_12_150
*1015 TAP_TAPCELL_ROW_12_151
*1016 TAP_TAPCELL_ROW_12_152
*1017 TAP_TAPCELL_ROW_12_153
*1018 TAP_TAPCELL_ROW_13_154
*1019 TAP_TAPCELL_ROW_13_155
*1020 TAP_TAPCELL_ROW_13_156
*1021 TAP_TAPCELL_ROW_13_157
*1022 TAP_TAPCELL_ROW_14_158
*1023 TAP_TAPCELL_ROW_14_159
*1024 TAP_TAPCELL_ROW_14_160
*1025 TAP_TAPCELL_ROW_14_161
*1026 TAP_TAPCELL_ROW_14_162
*1027 TAP_TAPCELL_ROW_15_163
*1028 TAP_TAPCELL_ROW_15_164
*1029 TAP_TAPCELL_ROW_15_165
*1030 TAP_TAPCELL_ROW_15_166
*1031 TAP_TAPCELL_ROW_16_167
*1032 TAP_TAPCELL_ROW_16_168
*1033 TAP_TAPCELL_ROW_16_169
*1034 TAP_TAPCELL_ROW_16_170
*1035 TAP_TAPCELL_ROW_16_171
*1036 TAP_TAPCELL_ROW_17_172
*1037 TAP_TAPCELL_ROW_17_173
*1038 TAP_TAPCELL_ROW_17_174
*1039 TAP_TAPCELL_ROW_17_175
*1040 TAP_TAPCELL_ROW_18_176
*1041 TAP_TAPCELL_ROW_18_177
*1042 TAP_TAPCELL_ROW_18_178
*1043 TAP_TAPCELL_ROW_18_179
*1044 TAP_TAPCELL_ROW_18_180
*1045 TAP_TAPCELL_ROW_19_181
*1046 TAP_TAPCELL_ROW_19_182
*1047 TAP_TAPCELL_ROW_19_183
*1048 TAP_TAPCELL_ROW_19_184
*1049 TAP_TAPCELL_ROW_1_100
*1050 TAP_TAPCELL_ROW_1_101
*1051 TAP_TAPCELL_ROW_1_102
*1052 TAP_TAPCELL_ROW_1_103
*1053 TAP_TAPCELL_ROW_20_185
*1054 TAP_TAPCELL_ROW_20_186
*1055 TAP_TAPCELL_ROW_20_187
*1056 TAP_TAPCELL_ROW_20_188
*1057 TAP_TAPCELL_ROW_20_189
*1058 TAP_TAPCELL_ROW_21_190
*1059 TAP_TAPCELL_ROW_21_191
*1060 TAP_TAPCELL_ROW_21_192
*1061 TAP_TAPCELL_ROW_21_193
*1062 TAP_TAPCELL_ROW_22_194
*1063 TAP_TAPCELL_ROW_22_195
*1064 TAP_TAPCELL_ROW_22_196
*1065 TAP_TAPCELL_ROW_22_197
*1066 TAP_TAPCELL_ROW_22_198
*1067 TAP_TAPCELL_ROW_23_199
*1068 TAP_TAPCELL_ROW_23_200
*1069 TAP_TAPCELL_ROW_23_201
*1070 TAP_TAPCELL_ROW_23_202
*1071 TAP_TAPCELL_ROW_24_203
*1072 TAP_TAPCELL_ROW_24_204
*1073 TAP_TAPCELL_ROW_24_205
*1074 TAP_TAPCELL_ROW_24_206
*1075 TAP_TAPCELL_ROW_24_207
*1076 TAP_TAPCELL_ROW_25_208
*1077 TAP_TAPCELL_ROW_25_209
*1078 TAP_TAPCELL_ROW_25_210
*1079 TAP_TAPCELL_ROW_25_211
*1080 TAP_TAPCELL_ROW_26_212
*1081 TAP_TAPCELL_ROW_26_213
*1082 TAP_TAPCELL_ROW_26_214
*1083 TAP_TAPCELL_ROW_26_215
*1084 TAP_TAPCELL_ROW_26_216
*1085 TAP_TAPCELL_ROW_27_217
*1086 TAP_TAPCELL_ROW_27_218
*1087 TAP_TAPCELL_ROW_27_219
*1088 TAP_TAPCELL_ROW_27_220
*1089 TAP_TAPCELL_ROW_28_221
*1090 TAP_TAPCELL_ROW_28_222
*1091 TAP_TAPCELL_ROW_28_223
*1092 TAP_TAPCELL_ROW_28_224
*1093 TAP_TAPCELL_ROW_28_225
*1094 TAP_TAPCELL_ROW_29_226
*1095 TAP_TAPCELL_ROW_29_227
*1096 TAP_TAPCELL_ROW_29_228
*1097 TAP_TAPCELL_ROW_29_229
*1098 TAP_TAPCELL_ROW_2_104
*1099 TAP_TAPCELL_ROW_2_105
*1100 TAP_TAPCELL_ROW_2_106
*1101 TAP_TAPCELL_ROW_2_107
*1102 TAP_TAPCELL_ROW_2_108
*1103 TAP_TAPCELL_ROW_30_230
*1104 TAP_TAPCELL_ROW_30_231
*1105 TAP_TAPCELL_ROW_30_232
*1106 TAP_TAPCELL_ROW_30_233
*1107 TAP_TAPCELL_ROW_30_234
*1108 TAP_TAPCELL_ROW_31_235
*1109 TAP_TAPCELL_ROW_31_236
*1110 TAP_TAPCELL_ROW_31_237
*1111 TAP_TAPCELL_ROW_31_238
*1112 TAP_TAPCELL_ROW_32_239
*1113 TAP_TAPCELL_ROW_32_240
*1114 TAP_TAPCELL_ROW_32_241
*1115 TAP_TAPCELL_ROW_32_242
*1116 TAP_TAPCELL_ROW_32_243
*1117 TAP_TAPCELL_ROW_33_244
*1118 TAP_TAPCELL_ROW_33_245
*1119 TAP_TAPCELL_ROW_33_246
*1120 TAP_TAPCELL_ROW_33_247
*1121 TAP_TAPCELL_ROW_34_248
*1122 TAP_TAPCELL_ROW_34_249
*1123 TAP_TAPCELL_ROW_34_250
*1124 TAP_TAPCELL_ROW_34_251
*1125 TAP_TAPCELL_ROW_34_252
*1126 TAP_TAPCELL_ROW_35_253
*1127 TAP_TAPCELL_ROW_35_254
*1128 TAP_TAPCELL_ROW_35_255
*1129 TAP_TAPCELL_ROW_35_256
*1130 TAP_TAPCELL_ROW_36_257
*1131 TAP_TAPCELL_ROW_36_258
*1132 TAP_TAPCELL_ROW_36_259
*1133 TAP_TAPCELL_ROW_36_260
*1134 TAP_TAPCELL_ROW_36_261
*1135 TAP_TAPCELL_ROW_37_262
*1136 TAP_TAPCELL_ROW_37_263
*1137 TAP_TAPCELL_ROW_37_264
*1138 TAP_TAPCELL_ROW_37_265
*1139 TAP_TAPCELL_ROW_38_266
*1140 TAP_TAPCELL_ROW_38_267
*1141 TAP_TAPCELL_ROW_38_268
*1142 TAP_TAPCELL_ROW_38_269
*1143 TAP_TAPCELL_ROW_38_270
*1144 TAP_TAPCELL_ROW_39_271
*1145 TAP_TAPCELL_ROW_39_272
*1146 TAP_TAPCELL_ROW_39_273
*1147 TAP_TAPCELL_ROW_39_274
*1148 TAP_TAPCELL_ROW_3_109
*1149 TAP_TAPCELL_ROW_3_110
*1150 TAP_TAPCELL_ROW_3_111
*1151 TAP_TAPCELL_ROW_3_112
*1152 TAP_TAPCELL_ROW_40_275
*1153 TAP_TAPCELL_ROW_40_276
*1154 TAP_TAPCELL_ROW_40_277
*1155 TAP_TAPCELL_ROW_40_278
*1156 TAP_TAPCELL_ROW_40_279
*1157 TAP_TAPCELL_ROW_41_280
*1158 TAP_TAPCELL_ROW_41_281
*1159 TAP_TAPCELL_ROW_41_282
*1160 TAP_TAPCELL_ROW_41_283
*1161 TAP_TAPCELL_ROW_42_284
*1162 TAP_TAPCELL_ROW_42_285
*1163 TAP_TAPCELL_ROW_42_286
*1164 TAP_TAPCELL_ROW_42_287
*1165 TAP_TAPCELL_ROW_42_288
*1166 TAP_TAPCELL_ROW_43_289
*1167 TAP_TAPCELL_ROW_43_290
*1168 TAP_TAPCELL_ROW_43_291
*1169 TAP_TAPCELL_ROW_43_292
*1170 TAP_TAPCELL_ROW_44_293
*1171 TAP_TAPCELL_ROW_44_294
*1172 TAP_TAPCELL_ROW_44_295
*1173 TAP_TAPCELL_ROW_44_296
*1174 TAP_TAPCELL_ROW_44_297
*1175 TAP_TAPCELL_ROW_44_298
*1176 TAP_TAPCELL_ROW_44_299
*1177 TAP_TAPCELL_ROW_44_300
*1178 TAP_TAPCELL_ROW_44_301
*1179 TAP_TAPCELL_ROW_44_302
*1180 TAP_TAPCELL_ROW_4_113
*1181 TAP_TAPCELL_ROW_4_114
*1182 TAP_TAPCELL_ROW_4_115
*1183 TAP_TAPCELL_ROW_4_116
*1184 TAP_TAPCELL_ROW_4_117
*1185 TAP_TAPCELL_ROW_5_118
*1186 TAP_TAPCELL_ROW_5_119
*1187 TAP_TAPCELL_ROW_5_120
*1188 TAP_TAPCELL_ROW_5_121
*1189 TAP_TAPCELL_ROW_6_122
*1190 TAP_TAPCELL_ROW_6_123
*1191 TAP_TAPCELL_ROW_6_124
*1192 TAP_TAPCELL_ROW_6_125
*1193 TAP_TAPCELL_ROW_6_126
*1194 TAP_TAPCELL_ROW_7_127
*1195 TAP_TAPCELL_ROW_7_128
*1196 TAP_TAPCELL_ROW_7_129
*1197 TAP_TAPCELL_ROW_7_130
*1198 TAP_TAPCELL_ROW_8_131
*1199 TAP_TAPCELL_ROW_8_132
*1200 TAP_TAPCELL_ROW_8_133
*1201 TAP_TAPCELL_ROW_8_134
*1202 TAP_TAPCELL_ROW_8_135
*1203 TAP_TAPCELL_ROW_9_136
*1204 TAP_TAPCELL_ROW_9_137
*1205 TAP_TAPCELL_ROW_9_138
*1206 TAP_TAPCELL_ROW_9_139
*1207 _112_
*1208 _113_
*1209 _114_
*1210 _115_
*1211 _116_
*1212 _117_
*1213 _118_
*1214 _119_
*1215 _120_
*1216 _121_
*1217 _122_
*1218 _123_
*1219 _124_
*1220 _125_
*1221 _126_
*1222 _127_
*1223 _128_
*1224 _129_
*1225 _130_
*1226 _131_
*1227 _132_
*1228 _133_
*1229 _134_
*1230 _135_
*1231 _136_
*1232 _137_
*1233 _138_
*1234 _139_
*1235 _140_
*1236 _141_
*1237 _142_
*1238 _143_
*1239 _144_
*1240 _145_
*1241 _146_
*1242 _147_
*1243 _148_
*1244 _149_
*1245 _150_
*1246 _151_
*1247 _152_
*1248 _153_
*1249 _154_
*1250 _155_
*1251 _156_
*1252 _157_
*1253 _158_
*1254 _159_
*1255 _160_
*1256 _161_
*1257 _162_
*1258 _163_
*1259 _164_
*1260 _165_
*1261 _166_
*1262 _167_
*1263 _168_
*1264 _169_
*1265 _170_
*1266 _171_
*1267 _172_
*1268 _173_
*1269 _174_
*1270 _175_
*1271 _176_
*1272 _177_
*1273 _178_
*1274 _179_
*1275 _180_
*1276 _181_
*1277 _182_
*1278 _183_
*1279 _184_
*1280 _185_
*1281 _186_
*1282 _187_
*1283 _188_
*1284 _189_
*1285 _190_
*1286 _191_
*1287 _192_
*1288 _193_
*1289 _194_
*1290 _195_
*1291 _196_
*1292 _197_
*1293 _198_
*1294 _199_
*1295 _200_
*1296 _201_
*1297 _202_
*1298 _203_
*1299 _204_
*1300 _205_
*1301 _206_
*1302 _207_
*1303 _208_
*1304 _209_
*1305 _210_
*1306 _211_
*1307 _212_
*1308 _213_
*1309 _214_
*1310 _215_
*1311 _216_
*1312 _217_
*1313 _218_
*1314 _219_
*1315 _220_
*1316 _221_
*1317 _222_
*1318 _223_
*1319 _224_
*1320 _225_
*1321 _226_
*1322 _227_
*1323 _228_
*1324 _229_
*1325 _230_
*1326 _231_
*1327 _232_
*1328 _233_
*1329 _234_
*1330 _235_
*1331 _236_
*1332 _237_
*1333 _238_
*1334 _239_
*1335 _240_
*1336 _241_
*1337 _242_
*1338 _243_
*1339 _244_
*1340 _245_
*1341 _246_
*1342 _247_
*1343 _251_
*1344 _252_
*1345 _253_
*1346 clkbuf_0_clk
*1347 clkbuf_1_0__f_clk
*1348 clkbuf_1_1__f_clk
*1349 ita25_24
*1350 ita25_25
*1351 ita25_26
*1352 output1
*1353 output10
*1354 output11
*1355 output12
*1356 output13
*1357 output14
*1358 output15
*1359 output16
*1360 output17
*1361 output18
*1362 output19
*1363 output2
*1364 output20
*1365 output21
*1366 output22
*1367 output23
*1368 output3
*1369 output4
*1370 output5
*1371 output6
*1372 output7
*1373 output8
*1374 output9

*PORTS
clk I
segm[0] O
segm[10] O
segm[11] O
segm[12] O
segm[13] O
segm[1] O
segm[2] O
segm[3] O
segm[4] O
segm[5] O
segm[6] O
segm[7] O
segm[8] O
segm[9] O
sel[0] O
sel[10] O
sel[11] O
sel[1] O
sel[2] O
sel[3] O
sel[4] O
sel[5] O
sel[6] O
sel[7] O
sel[8] O
sel[9] O

*D_NET *1 0.0131313
*CONN
*P clk I
*I *1346:I I *D gf180mcu_fd_sc_mcu7t5v0__clkbuf_16
*I *200:I I *D gf180mcu_fd_sc_mcu7t5v0__antenna
*CAP
1 clk 0.00265863
2 *1346:I 0.000191798
3 *200:I 0
4 *1:15 0.00268636
5 *1:11 0.00515319
6 *1346:I *1242:A2 2.24654e-05
7 *1346:I *1281:B 0
8 *1346:I *1307:A2 6.16518e-05
9 *1346:I *113:6 0.000122244
10 *1346:I *128:35 0.00010656
11 *1:15 *1226:I 1.23748e-05
12 *1:15 *1250:I 0.000832926
13 *1:15 *1254:A1 8.82081e-05
14 *1:15 *1322:D 0.000121622
15 *1:15 *81:12 7.93961e-05
16 *1:15 *103:10 0.000325199
17 *1:15 *105:42 0.000364551
18 *1:15 *133:8 1.77492e-05
19 *1:15 *135:21 7.10294e-05
20 *1:15 *135:46 4.17899e-05
21 *1:15 *145:8 0.000173585
*RES
1 clk *1:11 28.708 
2 *1:11 *1:15 29.772 
3 *1:15 *200:I 4.5 
4 *1:15 *1346:I 6.476 
*END

*D_NET *2 0.000732282
*CONN
*P segm[0] O
*I *1349:ZN O *D gf180mcu_fd_sc_mcu7t5v0__tiel
*CAP
1 segm[0] 0.000366141
2 *1349:ZN 0.000366141
*RES
1 *1349:ZN segm[0] 11.652 
*END

*D_NET *3 0.00266243
*CONN
*P segm[10] O
*I *1352:Z O *D gf180mcu_fd_sc_mcu7t5v0__buf_8
*CAP
1 segm[10] 0.00118857
2 *1352:Z 0.00118857
3 segm[10] segm[6] 0.00020428
4 segm[10] *1373:I 8.10026e-05
*RES
1 *1352:Z segm[10] 23.64 
*END

*D_NET *4 0.00232028
*CONN
*P segm[11] O
*I *1363:Z O *D gf180mcu_fd_sc_mcu7t5v0__buf_8
*CAP
1 segm[11] 0.00108784
2 *1363:Z 0.00108784
3 segm[11] sel[10] 0.000123793
4 segm[11] *1356:I 2.08037e-05
*RES
1 *1363:Z segm[11] 22.184 
*END

*D_NET *5 0.00224133
*CONN
*P segm[12] O
*I *1368:Z O *D gf180mcu_fd_sc_mcu7t5v0__buf_8
*CAP
1 segm[12] 0.00112067
2 *1368:Z 0.00112067
3 segm[12] segm[6] 0
*RES
1 *1368:Z segm[12] 21.872 