*SPEF "ieee 1481-1999"
*DESIGN "ita2"
*DATE "11:11:11 Fri 11 11, 1111"
*VENDOR "OpenRCX"
*PROGRAM "Parallel Extraction"
*VERSION "1.0"
*DESIGN_FLOW "NAME_SCOPE LOCAL" "PIN_CAP NONE"
*DIVIDER /
*DELIMITER :
*BUS_DELIMITER []
*T_UNIT 1 NS
*C_UNIT 1 PF
*R_UNIT 1 OHM
*L_UNIT 1 HENRY

*NAME_MAP
*1 clk
*2 net24
*3 segm[10]
*4 segm[11]
*5 segm[12]
*6 segm[13]
*7 segm[1]
*8 segm[2]
*9 net25
*10 segm[4]
*11 net26
*12 segm[6]
*13 segm[7]
*14 segm[8]
*15 segm[9]
*16 sel[0]
*17 sel[10]
*18 sel[11]
*19 sel[1]
*20 sel[2]
*21 sel[3]
*22 sel[4]
*23 sel[5]
*24 sel[6]
*25 sel[7]
*26 sel[8]
*27 sel[9]
*30 _000_
*31 _001_
*32 _002_
*33 _003_
*34 _004_
*35 _005_
*36 _006_
*37 _007_
*38 _008_
*39 _009_
*40 _010_
*41 _011_
*42 _012_
*43 _013_
*44 _014_
*45 _015_
*46 _016_
*47 _017_
*48 _018_
*49 _019_
*50 _020_
*51 _021_
*52 _022_
*53 _023_
*54 _024_
*55 _025_
*56 _026_
*57 _027_
*58 _028_
*59 _029_
*60 _030_
*61 _031_
*62 _032_
*63 _033_
*64 _034_
*65 _035_
*66 _036_
*67 _037_
*68 _038_
*69 _039_
*70 _040_
*71 _041_
*72 _042_
*73 _043_
*74 _044_
*75 _045_
*76 _046_
*77 _047_
*78 _048_
*79 _049_
*80 _050_
*81 _051_
*82 _052_
*83 _053_
*84 _054_
*85 _055_
*86 _056_
*87 _057_
*88 _058_
*89 _059_
*90 _060_
*91 _061_
*92 _062_
*93 _063_
*94 _064_
*95 _065_
*96 _066_
*97 _067_
*98 _068_
*99 _069_
*100 _070_
*101 _071_
*102 _072_
*103 _073_
*104 _074_
*105 _075_
*106 _076_
*107 _077_
*108 _078_
*109 _079_
*110 _080_
*111 _081_
*112 _082_
*113 _083_
*114 _084_
*115 _085_
*116 _086_
*117 _087_
*118 _088_
*119 _089_
*120 _090_
*121 clknet_0_clk
*122 clknet_1_0__leaf_clk
*123 clknet_1_1__leaf_clk
*124 dut2\.count\[0\]
*125 dut2\.count\[1\]
*126 dut2\.count\[2\]
*127 dut2\.count\[3\]
*128 net1
*129 net10
*130 net11
*131 net12
*132 net13
*133 net14
*134 net15
*135 net16
*136 net17
*137 net18
*138 net19
*139 net2
*140 net20
*141 net21
*142 net22
*143 net23
*144 net3
*145 net4
*146 net5
*147 net6
*148 net7
*149 net8
*150 net9
*151 ANTENNA__182__CLK
*152 ANTENNA__183__CLK
*153 ANTENNA__184__CLK
*154 ANTENNA__185__CLK
*155 ANTENNA__186__CLK
*156 ANTENNA__187__CLK
*157 ANTENNA__188__CLK
*158 ANTENNA__189__CLK
*159 ANTENNA__190__CLK
*160 ANTENNA__191__CLK
*161 ANTENNA__192__CLK
*162 ANTENNA__193__CLK
*163 ANTENNA__194__CLK
*164 ANTENNA__195__CLK
*165 ANTENNA__196__CLK
*166 ANTENNA__197__CLK
*167 ANTENNA__198__CLK
*168 ANTENNA__199__CLK
*169 ANTENNA__200__CLK
*170 ANTENNA__201__CLK
*171 ANTENNA__202__CLK
*172 ANTENNA__203__CLK
*173 ANTENNA__204__CLK
*174 ANTENNA__205__CLK
*175 ANTENNA_clkbuf_0_clk_I
*176 FILLER_0_0_104
*177 FILLER_0_0_138
*178 FILLER_0_0_172
*179 FILLER_0_0_176
*180 FILLER_0_0_2
*181 FILLER_0_0_206
*182 FILLER_0_0_210
*183 FILLER_0_0_240
*184 FILLER_0_0_274
*185 FILLER_0_0_308
*186 FILLER_0_0_342
*187 FILLER_0_0_346
*188 FILLER_0_0_348
*189 FILLER_0_0_36
*190 FILLER_0_0_52
*191 FILLER_0_0_54
*192 FILLER_0_0_59
*193 FILLER_0_0_67
*194 FILLER_0_0_70
*195 FILLER_0_10_101
*196 FILLER_0_10_107
*197 FILLER_0_10_171
*198 FILLER_0_10_177
*199 FILLER_0_10_2
*200 FILLER_0_10_241
*201 FILLER_0_10_247
*202 FILLER_0_10_311
*203 FILLER_0_10_317
*204 FILLER_0_10_34
*205 FILLER_0_10_37
*206 FILLER_0_11_136
*207 FILLER_0_11_142
*208 FILLER_0_11_2
*209 FILLER_0_11_206
*210 FILLER_0_11_212
*211 FILLER_0_11_276
*212 FILLER_0_11_282
*213 FILLER_0_11_346
*214 FILLER_0_11_348
*215 FILLER_0_11_66
*216 FILLER_0_11_72
*217 FILLER_0_12_101
*218 FILLER_0_12_107
*219 FILLER_0_12_171
*220 FILLER_0_12_177
*221 FILLER_0_12_2
*222 FILLER_0_12_241
*223 FILLER_0_12_247
*224 FILLER_0_12_311
*225 FILLER_0_12_317
*226 FILLER_0_12_34
*227 FILLER_0_12_37
*228 FILLER_0_13_136
*229 FILLER_0_13_142
*230 FILLER_0_13_158
*231 FILLER_0_13_191
*232 FILLER_0_13_195
*233 FILLER_0_13_2
*234 FILLER_0_13_203
*235 FILLER_0_13_207
*236 FILLER_0_13_209
*237 FILLER_0_13_212
*238 FILLER_0_13_276
*239 FILLER_0_13_282
*240 FILLER_0_13_346
*241 FILLER_0_13_348
*242 FILLER_0_13_66
*243 FILLER_0_13_72
*244 FILLER_0_14_101
*245 FILLER_0_14_107
*246 FILLER_0_14_123
*247 FILLER_0_14_143
*248 FILLER_0_14_177
*249 FILLER_0_14_179
*250 FILLER_0_14_185
*251 FILLER_0_14_193
*252 FILLER_0_14_197
*253 FILLER_0_14_199
*254 FILLER_0_14_2
*255 FILLER_0_14_229
*256 FILLER_0_14_233
*257 FILLER_0_14_241
*258 FILLER_0_14_247
*259 FILLER_0_14_311
*260 FILLER_0_14_317
*261 FILLER_0_14_34
*262 FILLER_0_14_37
*263 FILLER_0_15_104
*264 FILLER_0_15_108
*265 FILLER_0_15_110
*266 FILLER_0_15_142
*267 FILLER_0_15_146
*268 FILLER_0_15_177
*269 FILLER_0_15_181
*270 FILLER_0_15_197
*271 FILLER_0_15_2
*272 FILLER_0_15_205
*273 FILLER_0_15_209
*274 FILLER_0_15_225
*275 FILLER_0_15_257
*276 FILLER_0_15_273
*277 FILLER_0_15_277
*278 FILLER_0_15_279
*279 FILLER_0_15_282
*280 FILLER_0_15_346
*281 FILLER_0_15_348
*282 FILLER_0_15_66
*283 FILLER_0_15_72
*284 FILLER_0_16_107
*285 FILLER_0_16_111
*286 FILLER_0_16_127
*287 FILLER_0_16_131
*288 FILLER_0_16_138
*289 FILLER_0_16_154
*290 FILLER_0_16_162
*291 FILLER_0_16_164
*292 FILLER_0_16_177
*293 FILLER_0_16_184
*294 FILLER_0_16_192
*295 FILLER_0_16_194
*296 FILLER_0_16_2
*297 FILLER_0_16_224
*298 FILLER_0_16_228
*299 FILLER_0_16_244
*300 FILLER_0_16_247
*301 FILLER_0_16_311
*302 FILLER_0_16_317
*303 FILLER_0_16_34
*304 FILLER_0_16_37
*305 FILLER_0_16_69
*306 FILLER_0_16_73
*307 FILLER_0_16_75
*308 FILLER_0_17_119
*309 FILLER_0_17_123
*310 FILLER_0_17_139
*311 FILLER_0_17_148
*312 FILLER_0_17_164
*313 FILLER_0_17_194
*314 FILLER_0_17_198
*315 FILLER_0_17_202
*316 FILLER_0_17_208
*317 FILLER_0_17_212
*318 FILLER_0_17_220
*319 FILLER_0_17_227
*320 FILLER_0_17_259
*321 FILLER_0_17_275
*322 FILLER_0_17_279
*323 FILLER_0_17_28
*324 FILLER_0_17_282
*325 FILLER_0_17_314
*326 FILLER_0_17_322
*327 FILLER_0_17_60
*328 FILLER_0_17_68
*329 FILLER_0_17_72
*330 FILLER_0_17_88
*331 FILLER_0_18_107
*332 FILLER_0_18_111
*333 FILLER_0_18_125
*334 FILLER_0_18_129
*335 FILLER_0_18_140
*336 FILLER_0_18_142
*337 FILLER_0_18_157
*338 FILLER_0_18_167
*339 FILLER_0_18_174
*340 FILLER_0_18_177
*341 FILLER_0_18_193
*342 FILLER_0_18_201
*343 FILLER_0_18_211
*344 FILLER_0_18_241
*345 FILLER_0_18_247
*346 FILLER_0_18_28
*347 FILLER_0_18_311
*348 FILLER_0_18_317
*349 FILLER_0_18_32
*350 FILLER_0_18_321
*351 FILLER_0_18_34
*352 FILLER_0_18_37
*353 FILLER_0_18_69
*354 FILLER_0_18_85
*355 FILLER_0_18_89
*356 FILLER_0_19_106
*357 FILLER_0_19_122
*358 FILLER_0_19_142
*359 FILLER_0_19_146
*360 FILLER_0_19_163
*361 FILLER_0_19_184
*362 FILLER_0_19_200
*363 FILLER_0_19_208
*364 FILLER_0_19_212
*365 FILLER_0_19_222
*366 FILLER_0_19_254
*367 FILLER_0_19_270
*368 FILLER_0_19_278
*369 FILLER_0_19_28
*370 FILLER_0_19_282
*371 FILLER_0_19_346
*372 FILLER_0_19_348
*373 FILLER_0_19_60
*374 FILLER_0_19_68
*375 FILLER_0_19_72
*376 FILLER_0_19_88
*377 FILLER_0_19_96
*378 FILLER_0_1_136
*379 FILLER_0_1_142
*380 FILLER_0_1_174
*381 FILLER_0_1_178
*382 FILLER_0_1_180
*383 FILLER_0_1_2
*384 FILLER_0_1_207
*385 FILLER_0_1_209
*386 FILLER_0_1_212
*387 FILLER_0_1_276
*388 FILLER_0_1_282
*389 FILLER_0_1_346
*390 FILLER_0_1_348
*391 FILLER_0_1_66
*392 FILLER_0_1_72
*393 FILLER_0_20_101
*394 FILLER_0_20_107
*395 FILLER_0_20_115
*396 FILLER_0_20_119
*397 FILLER_0_20_148
*398 FILLER_0_20_177
*399 FILLER_0_20_179
*400 FILLER_0_20_2
*401 FILLER_0_20_209
*402 FILLER_0_20_211
*403 FILLER_0_20_222
*404 FILLER_0_20_226
*405 FILLER_0_20_242
*406 FILLER_0_20_244
*407 FILLER_0_20_247
*408 FILLER_0_20_311
*409 FILLER_0_20_317
*410 FILLER_0_20_34
*411 FILLER_0_20_37
*412 FILLER_0_21_108
*413 FILLER_0_21_110
*414 FILLER_0_21_142
*415 FILLER_0_21_184
*416 FILLER_0_21_186
*417 FILLER_0_21_2
*418 FILLER_0_21_201
*419 FILLER_0_21_209
*420 FILLER_0_21_241
*421 FILLER_0_21_245
*422 FILLER_0_21_277
*423 FILLER_0_21_279
*424 FILLER_0_21_282
*425 FILLER_0_21_346
*426 FILLER_0_21_348
*427 FILLER_0_21_66
*428 FILLER_0_21_72
*429 FILLER_0_21_88
*430 FILLER_0_21_92
*431 FILLER_0_21_99
*432 FILLER_0_22_102
*433 FILLER_0_22_104
*434 FILLER_0_22_121
*435 FILLER_0_22_172
*436 FILLER_0_22_174
*437 FILLER_0_22_177
*438 FILLER_0_22_179
*439 FILLER_0_22_2
*440 FILLER_0_22_230
*441 FILLER_0_22_238
*442 FILLER_0_22_242
*443 FILLER_0_22_244
*444 FILLER_0_22_247
*445 FILLER_0_22_311
*446 FILLER_0_22_317
*447 FILLER_0_22_321
*448 FILLER_0_22_34
*449 FILLER_0_22_37
*450 FILLER_0_22_69
*451 FILLER_0_23_106
*452 FILLER_0_23_108
*453 FILLER_0_23_127
*454 FILLER_0_23_142
*455 FILLER_0_23_144
*456 FILLER_0_23_197
*457 FILLER_0_23_205
*458 FILLER_0_23_209
*459 FILLER_0_23_241
*460 FILLER_0_23_245
*461 FILLER_0_23_277
*462 FILLER_0_23_279
*463 FILLER_0_23_28
*464 FILLER_0_23_282
*465 FILLER_0_23_314
*466 FILLER_0_23_322
*467 FILLER_0_23_60
*468 FILLER_0_23_68
*469 FILLER_0_23_72
*470 FILLER_0_23_76
*471 FILLER_0_24_107
*472 FILLER_0_24_170
*473 FILLER_0_24_174
*474 FILLER_0_24_177
*475 FILLER_0_24_185
*476 FILLER_0_24_194
*477 FILLER_0_24_2
*478 FILLER_0_24_202
*479 FILLER_0_24_220
*480 FILLER_0_24_222
*481 FILLER_0_24_235
*482 FILLER_0_24_243
*483 FILLER_0_24_247
*484 FILLER_0_24_311
*485 FILLER_0_24_317
*486 FILLER_0_24_321
*487 FILLER_0_24_34
*488 FILLER_0_24_37
*489 FILLER_0_24_69
*490 FILLER_0_24_85
*491 FILLER_0_24_93
*492 FILLER_0_24_97
*493 FILLER_0_24_99
*494 FILLER_0_25_104
*495 FILLER_0_25_108
*496 FILLER_0_25_116
*497 FILLER_0_25_120
*498 FILLER_0_25_142
*499 FILLER_0_25_165
*500 FILLER_0_25_173
*501 FILLER_0_25_183
*502 FILLER_0_25_199
*503 FILLER_0_25_2
*504 FILLER_0_25_207
*505 FILLER_0_25_209
*506 FILLER_0_25_212
*507 FILLER_0_25_276
*508 FILLER_0_25_282
*509 FILLER_0_25_346
*510 FILLER_0_25_348
*511 FILLER_0_25_66
*512 FILLER_0_25_72
*513 FILLER_0_26_115
*514 FILLER_0_26_131
*515 FILLER_0_26_136
*516 FILLER_0_26_168
*517 FILLER_0_26_172
*518 FILLER_0_26_174
*519 FILLER_0_26_195
*520 FILLER_0_26_199
*521 FILLER_0_26_2
*522 FILLER_0_26_231
*523 FILLER_0_26_239
*524 FILLER_0_26_243
*525 FILLER_0_26_247
*526 FILLER_0_26_311
*527 FILLER_0_26_317
*528 FILLER_0_26_34
*529 FILLER_0_26_37
*530 FILLER_0_26_69
*531 FILLER_0_26_85
*532 FILLER_0_26_93
*533 FILLER_0_26_97
*534 FILLER_0_26_99
*535 FILLER_0_27_127
*536 FILLER_0_27_131
*537 FILLER_0_27_139
*538 FILLER_0_27_151
*539 FILLER_0_27_159
*540 FILLER_0_27_2
*541 FILLER_0_27_202
*542 FILLER_0_27_212
*543 FILLER_0_27_221
*544 FILLER_0_27_232
*545 FILLER_0_27_264
*546 FILLER_0_27_282
*547 FILLER_0_27_346
*548 FILLER_0_27_348
*549 FILLER_0_27_66
*550 FILLER_0_27_72
*551 FILLER_0_27_88
*552 FILLER_0_27_92
*553 FILLER_0_28_115
*554 FILLER_0_28_123
*555 FILLER_0_28_125
*556 FILLER_0_28_155
*557 FILLER_0_28_159
*558 FILLER_0_28_161
*559 FILLER_0_28_168
*560 FILLER_0_28_172
*561 FILLER_0_28_174
*562 FILLER_0_28_177
*563 FILLER_0_28_207
*564 FILLER_0_28_240
*565 FILLER_0_28_244
*566 FILLER_0_28_247
*567 FILLER_0_28_28
*568 FILLER_0_28_311
*569 FILLER_0_28_317
*570 FILLER_0_28_32
*571 FILLER_0_28_321
*572 FILLER_0_28_34
*573 FILLER_0_28_37
*574 FILLER_0_28_69
*575 FILLER_0_28_73
*576 FILLER_0_28_75
*577 FILLER_0_29_104
*578 FILLER_0_29_107
*579 FILLER_0_29_123
*580 FILLER_0_29_131
*581 FILLER_0_29_150
*582 FILLER_0_29_182
*583 FILLER_0_29_198
*584 FILLER_0_29_2
*585 FILLER_0_29_206
*586 FILLER_0_29_247
*587 FILLER_0_29_251
*588 FILLER_0_29_267
*589 FILLER_0_29_275
*590 FILLER_0_29_279
*591 FILLER_0_29_282
*592 FILLER_0_29_314
*593 FILLER_0_29_322
*594 FILLER_0_29_66
*595 FILLER_0_29_72
*596 FILLER_0_2_101
*597 FILLER_0_2_107
*598 FILLER_0_2_171
*599 FILLER_0_2_177
*600 FILLER_0_2_2
*601 FILLER_0_2_241
*602 FILLER_0_2_247
*603 FILLER_0_2_311
*604 FILLER_0_2_317
*605 FILLER_0_2_34
*606 FILLER_0_2_37
*607 FILLER_0_30_101
*608 FILLER_0_30_107
*609 FILLER_0_30_111
*610 FILLER_0_30_148
*611 FILLER_0_30_152
*612 FILLER_0_30_154
*613 FILLER_0_30_160
*614 FILLER_0_30_164
*615 FILLER_0_30_171
*616 FILLER_0_30_177
*617 FILLER_0_30_185
*618 FILLER_0_30_194
*619 FILLER_0_30_2
*620 FILLER_0_30_201
*621 FILLER_0_30_217
*622 FILLER_0_30_226
*623 FILLER_0_30_230
*624 FILLER_0_30_238
*625 FILLER_0_30_242
*626 FILLER_0_30_244
*627 FILLER_0_30_247
*628 FILLER_0_30_311
*629 FILLER_0_30_317
*630 FILLER_0_30_321
*631 FILLER_0_30_34
*632 FILLER_0_30_37
*633 FILLER_0_31_136
*634 FILLER_0_31_142
*635 FILLER_0_31_144
*636 FILLER_0_31_176
*637 FILLER_0_31_178
*638 FILLER_0_31_2
*639 FILLER_0_31_208
*640 FILLER_0_31_212
*641 FILLER_0_31_216
*642 FILLER_0_31_282
*643 FILLER_0_31_314
*644 FILLER_0_31_322
*645 FILLER_0_31_66
*646 FILLER_0_31_72
*647 FILLER_0_32_101
*648 FILLER_0_32_107
*649 FILLER_0_32_171
*650 FILLER_0_32_177
*651 FILLER_0_32_2
*652 FILLER_0_32_241
*653 FILLER_0_32_247
*654 FILLER_0_32_311
*655 FILLER_0_32_317
*656 FILLER_0_32_34
*657 FILLER_0_32_37
*658 FILLER_0_33_136
*659 FILLER_0_33_142
*660 FILLER_0_33_2
*661 FILLER_0_33_206
*662 FILLER_0_33_212
*663 FILLER_0_33_276
*664 FILLER_0_33_282
*665 FILLER_0_33_346
*666 FILLER_0_33_348
*667 FILLER_0_33_66
*668 FILLER_0_33_72
*669 FILLER_0_34_101
*670 FILLER_0_34_107
*671 FILLER_0_34_171
*672 FILLER_0_34_177
*673 FILLER_0_34_2
*674 FILLER_0_34_241
*675 FILLER_0_34_247
*676 FILLER_0_34_311
*677 FILLER_0_34_317
*678 FILLER_0_34_34
*679 FILLER_0_34_37
*680 FILLER_0_35_136
*681 FILLER_0_35_142
*682 FILLER_0_35_2
*683 FILLER_0_35_206
*684 FILLER_0_35_212
*685 FILLER_0_35_276
*686 FILLER_0_35_282
*687 FILLER_0_35_346
*688 FILLER_0_35_348
*689 FILLER_0_35_66
*690 FILLER_0_35_72
*691 FILLER_0_36_101
*692 FILLER_0_36_107
*693 FILLER_0_36_171
*694 FILLER_0_36_177
*695 FILLER_0_36_2
*696 FILLER_0_36_241
*697 FILLER_0_36_247
*698 FILLER_0_36_311
*699 FILLER_0_36_317
*700 FILLER_0_36_34
*701 FILLER_0_36_37
*702 FILLER_0_37_136
*703 FILLER_0_37_142
*704 FILLER_0_37_2
*705 FILLER_0_37_206
*706 FILLER_0_37_212
*707 FILLER_0_37_276
*708 FILLER_0_37_282
*709 FILLER_0_37_346
*710 FILLER_0_37_348
*711 FILLER_0_37_66
*712 FILLER_0_37_72
*713 FILLER_0_38_101
*714 FILLER_0_38_107
*715 FILLER_0_38_171
*716 FILLER_0_38_177
*717 FILLER_0_38_2
*718 FILLER_0_38_241
*719 FILLER_0_38_247
*720 FILLER_0_38_311
*721 FILLER_0_38_317
*722 FILLER_0_38_34
*723 FILLER_0_38_37
*724 FILLER_0_39_136
*725 FILLER_0_39_142
*726 FILLER_0_39_2
*727 FILLER_0_39_206
*728 FILLER_0_39_212
*729 FILLER_0_39_276
*730 FILLER_0_39_282
*731 FILLER_0_39_346
*732 FILLER_0_39_348
*733 FILLER_0_39_66
*734 FILLER_0_39_72
*735 FILLER_0_3_136
*736 FILLER_0_3_142
*737 FILLER_0_3_2
*738 FILLER_0_3_206
*739 FILLER_0_3_212
*740 FILLER_0_3_276
*741 FILLER_0_3_282
*742 FILLER_0_3_346
*743 FILLER_0_3_348
*744 FILLER_0_3_66
*745 FILLER_0_3_72
*746 FILLER_0_40_101
*747 FILLER_0_40_107
*748 FILLER_0_40_171
*749 FILLER_0_40_177
*750 FILLER_0_40_2
*751 FILLER_0_40_241
*752 FILLER_0_40_247
*753 FILLER_0_40_311
*754 FILLER_0_40_317
*755 FILLER_0_40_34
*756 FILLER_0_40_37
*757 FILLER_0_41_136
*758 FILLER_0_41_142
*759 FILLER_0_41_2
*760 FILLER_0_41_206
*761 FILLER_0_41_212
*762 FILLER_0_41_276
*763 FILLER_0_41_282
*764 FILLER_0_41_346
*765 FILLER_0_41_348
*766 FILLER_0_41_66
*767 FILLER_0_41_72
*768 FILLER_0_42_101
*769 FILLER_0_42_107
*770 FILLER_0_42_171
*771 FILLER_0_42_177
*772 FILLER_0_42_2
*773 FILLER_0_42_241
*774 FILLER_0_42_247
*775 FILLER_0_42_311
*776 FILLER_0_42_317
*777 FILLER_0_42_34
*778 FILLER_0_42_37
*779 FILLER_0_43_136
*780 FILLER_0_43_168
*781 FILLER_0_43_172
*782 FILLER_0_43_174
*783 FILLER_0_43_2
*784 FILLER_0_43_201
*785 FILLER_0_43_209
*786 FILLER_0_43_238
*787 FILLER_0_43_270
*788 FILLER_0_43_278
*789 FILLER_0_43_282
*790 FILLER_0_43_314
*791 FILLER_0_43_330
*792 FILLER_0_43_338
*793 FILLER_0_43_342
*794 FILLER_0_43_344
*795 FILLER_0_43_66
*796 FILLER_0_43_72
*797 FILLER_0_44_104
*798 FILLER_0_44_138
*799 FILLER_0_44_142
*800 FILLER_0_44_176
*801 FILLER_0_44_2
*802 FILLER_0_44_232
*803 FILLER_0_44_236
*804 FILLER_0_44_240
*805 FILLER_0_44_274
*806 FILLER_0_44_308
*807 FILLER_0_44_342
*808 FILLER_0_44_346
*809 FILLER_0_44_348
*810 FILLER_0_44_36
*811 FILLER_0_44_70
*812 FILLER_0_4_101
*813 FILLER_0_4_107
*814 FILLER_0_4_171
*815 FILLER_0_4_177
*816 FILLER_0_4_2
*817 FILLER_0_4_241
*818 FILLER_0_4_247
*819 FILLER_0_4_311
*820 FILLER_0_4_317
*821 FILLER_0_4_34
*822 FILLER_0_4_37
*823 FILLER_0_5_136
*824 FILLER_0_5_142
*825 FILLER_0_5_2
*826 FILLER_0_5_206
*827 FILLER_0_5_212
*828 FILLER_0_5_276
*829 FILLER_0_5_282
*830 FILLER_0_5_346
*831 FILLER_0_5_348
*832 FILLER_0_5_66
*833 FILLER_0_5_72
*834 FILLER_0_6_101
*835 FILLER_0_6_107
*836 FILLER_0_6_171
*837 FILLER_0_6_177
*838 FILLER_0_6_2
*839 FILLER_0_6_241
*840 FILLER_0_6_247
*841 FILLER_0_6_311
*842 FILLER_0_6_317
*843 FILLER_0_6_34
*844 FILLER_0_6_37
*845 FILLER_0_7_136
*846 FILLER_0_7_142
*847 FILLER_0_7_2
*848 FILLER_0_7_206
*849 FILLER_0_7_212
*850 FILLER_0_7_276
*851 FILLER_0_7_282
*852 FILLER_0_7_346
*853 FILLER_0_7_348
*854 FILLER_0_7_66
*855 FILLER_0_7_72
*856 FILLER_0_8_101
*857 FILLER_0_8_107
*858 FILLER_0_8_171
*859 FILLER_0_8_177
*860 FILLER_0_8_2
*861 FILLER_0_8_241
*862 FILLER_0_8_247
*863 FILLER_0_8_311
*864 FILLER_0_8_317
*865 FILLER_0_8_34
*866 FILLER_0_8_37
*867 FILLER_0_9_136
*868 FILLER_0_9_142
*869 FILLER_0_9_2
*870 FILLER_0_9_206
*871 FILLER_0_9_212
*872 FILLER_0_9_276
*873 FILLER_0_9_282
*874 FILLER_0_9_346
*875 FILLER_0_9_348
*876 FILLER_0_9_66
*877 FILLER_0_9_72
*878 PHY_EDGE_ROW_0_Left_45
*879 PHY_EDGE_ROW_0_Right_0
*880 PHY_EDGE_ROW_10_Left_55
*881 PHY_EDGE_ROW_10_Right_10
*882 PHY_EDGE_ROW_11_Left_56
*883 PHY_EDGE_ROW_11_Right_11
*884 PHY_EDGE_ROW_12_Left_57
*885 PHY_EDGE_ROW_12_Right_12
*886 PHY_EDGE_ROW_13_Left_58
*887 PHY_EDGE_ROW_13_Right_13
*888 PHY_EDGE_ROW_14_Left_59
*889 PHY_EDGE_ROW_14_Right_14
*890 PHY_EDGE_ROW_15_Left_60
*891 PHY_EDGE_ROW_15_Right_15
*892 PHY_EDGE_ROW_16_Left_61
*893 PHY_EDGE_ROW_16_Right_16
*894 PHY_EDGE_ROW_17_Left_62
*895 PHY_EDGE_ROW_17_Right_17
*896 PHY_EDGE_ROW_18_Left_63
*897 PHY_EDGE_ROW_18_Right_18
*898 PHY_EDGE_ROW_19_Left_64
*899 PHY_EDGE_ROW_19_Right_19
*900 PHY_EDGE_ROW_1_Left_46
*901 PHY_EDGE_ROW_1_Right_1
*902 PHY_EDGE_ROW_20_Left_65
*903 PHY_EDGE_ROW_20_Right_20
*904 PHY_EDGE_ROW_21_Left_66
*905 PHY_EDGE_ROW_21_Right_21
*906 PHY_EDGE_ROW_22_Left_67
*907 PHY_EDGE_ROW_22_Right_22
*908 PHY_EDGE_ROW_23_Left_68
*909 PHY_EDGE_ROW_23_Right_23
*910 PHY_EDGE_ROW_24_Left_69
*911 PHY_EDGE_ROW_24_Right_24
*912 PHY_EDGE_ROW_25_Left_70
*913 PHY_EDGE_ROW_25_Right_25
*914 PHY_EDGE_ROW_26_Left_71
*915 PHY_EDGE_ROW_26_Right_26
*916 PHY_EDGE_ROW_27_Left_72
*917 PHY_EDGE_ROW_27_Right_27
*918 PHY_EDGE_ROW_28_Left_73
*919 PHY_EDGE_ROW_28_Right_28
*920 PHY_EDGE_ROW_29_Left_74
*921 PHY_EDGE_ROW_29_Right_29
*922 PHY_EDGE_ROW_2_Left_47
*923 PHY_EDGE_ROW_2_Right_2
*924 PHY_EDGE_ROW_30_Left_75
*925 PHY_EDGE_ROW_30_Right_30
*926 PHY_EDGE_ROW_31_Left_76
*927 PHY_EDGE_ROW_31_Right_31
*928 PHY_EDGE_ROW_32_Left_77
*929 PHY_EDGE_ROW_32_Right_32
*930 PHY_EDGE_ROW_33_Left_78
*931 PHY_EDGE_ROW_33_Right_33
*932 PHY_EDGE_ROW_34_Left_79
*933 PHY_EDGE_ROW_34_Right_34
*934 PHY_EDGE_ROW_35_Left_80
*935 PHY_EDGE_ROW_35_Right_35
*936 PHY_EDGE_ROW_36_Left_81
*937 PHY_EDGE_ROW_36_Right_36
*938 PHY_EDGE_ROW_37_Left_82
*939 PHY_EDGE_ROW_37_Right_37
*940 PHY_EDGE_ROW_38_Left_83
*941 PHY_EDGE_ROW_38_Right_38
*942 PHY_EDGE_ROW_39_Left_84
*943 PHY_EDGE_ROW_39_Right_39
*944 PHY_EDGE_ROW_3_Left_48
*945 PHY_EDGE_ROW_3_Right_3
*946 PHY_EDGE_ROW_40_Left_85
*947 PHY_EDGE_ROW_40_Right_40
*948 PHY_EDGE_ROW_41_Left_86
*949 PHY_EDGE_ROW_41_Right_41
*950 PHY_EDGE_ROW_42_Left_87
*951 PHY_EDGE_ROW_42_Right_42
*952 PHY_EDGE_ROW_43_Left_88
*953 PHY_EDGE_ROW_43_Right_43
*954 PHY_EDGE_ROW_44_Left_89
*955 PHY_EDGE_ROW_44_Right_44
*956 PHY_EDGE_ROW_4_Left_49
*957 PHY_EDGE_ROW_4_Right_4
*958 PHY_EDGE_ROW_5_Left_50
*959 PHY_EDGE_ROW_5_Right_5
*960 PHY_EDGE_ROW_6_Left_51
*961 PHY_EDGE_ROW_6_Right_6
*962 PHY_EDGE_ROW_7_Left_52
*963 PHY_EDGE_ROW_7_Right_7
*964 PHY_EDGE_ROW_8_Left_53
*965 PHY_EDGE_ROW_8_Right_8
*966 PHY_EDGE_ROW_9_Left_54
*967 PHY_EDGE_ROW_9_Right_9
*968 TAP_TAPCELL_ROW_0_90
*969 TAP_TAPCELL_ROW_0_91
*970 TAP_TAPCELL_ROW_0_92
*971 TAP_TAPCELL_ROW_0_93
*972 TAP_TAPCELL_ROW_0_94
*973 TAP_TAPCELL_ROW_0_95
*974 TAP_TAPCELL_ROW_0_96
*975 TAP_TAPCELL_ROW_0_97
*976 TAP_TAPCELL_ROW_0_98
*977 TAP_TAPCELL_ROW_0_99
*978 TAP_TAPCELL_ROW_10_140
*979 TAP_TAPCELL_ROW_10_141
*980 TAP_TAPCELL_ROW_10_142
*981 TAP_TAPCELL_ROW_10_143
*982 TAP_TAPCELL_ROW_10_144
*983 TAP_TAPCELL_ROW_11_145
*984 TAP_TAPCELL_ROW_11_146
*985 TAP_TAPCELL_ROW_11_147
*986 TAP_TAPCELL_ROW_11_148
*987 TAP_TAPCELL_ROW_12_149
*988 TAP_TAPCELL_ROW_12_150
*989 TAP_TAPCELL_ROW_12_151
*990 TAP_TAPCELL_ROW_12_152
*991 TAP_TAPCELL_ROW_12_153
*992 TAP_TAPCELL_ROW_13_154
*993 TAP_TAPCELL_ROW_13_155
*994 TAP_TAPCELL_ROW_13_156
*995 TAP_TAPCELL_ROW_13_157
*996 TAP_TAPCELL_ROW_14_158
*997 TAP_TAPCELL_ROW_14_159
*998 TAP_TAPCELL_ROW_14_160
*999 TAP_TAPCELL_ROW_14_161
*1000 TAP_TAPCELL_ROW_14_162
*1001 TAP_TAPCELL_ROW_15_163
*1002 TAP_TAPCELL_ROW_15_164
*1003 TAP_TAPCELL_ROW_15_165
*1004 TAP_TAPCELL_ROW_15_166
*1005 TAP_TAPCELL_ROW_16_167
*1006 TAP_TAPCELL_ROW_16_168
*1007 TAP_TAPCELL_ROW_16_169
*1008 TAP_TAPCELL_ROW_16_170
*1009 TAP_TAPCELL_ROW_16_171
*1010 TAP_TAPCELL_ROW_17_172
*1011 TAP_TAPCELL_ROW_17_173
*1012 TAP_TAPCELL_ROW_17_174
*1013 TAP_TAPCELL_ROW_17_175
*1014 TAP_TAPCELL_ROW_18_176
*1015 TAP_TAPCELL_ROW_18_177
*1016 TAP_TAPCELL_ROW_18_178
*1017 TAP_TAPCELL_ROW_18_179
*1018 TAP_TAPCELL_ROW_18_180
*1019 TAP_TAPCELL_ROW_19_181
*1020 TAP_TAPCELL_ROW_19_182
*1021 TAP_TAPCELL_ROW_19_183
*1022 TAP_TAPCELL_ROW_19_184
*1023 TAP_TAPCELL_ROW_1_100
*1024 TAP_TAPCELL_ROW_1_101
*1025 TAP_TAPCELL_ROW_1_102
*1026 TAP_TAPCELL_ROW_1_103
*1027 TAP_TAPCELL_ROW_20_185
*1028 TAP_TAPCELL_ROW_20_186
*1029 TAP_TAPCELL_ROW_20_187
*1030 TAP_TAPCELL_ROW_20_188
*1031 TAP_TAPCELL_ROW_20_189
*1032 TAP_TAPCELL_ROW_21_190
*1033 TAP_TAPCELL_ROW_21_191
*1034 TAP_TAPCELL_ROW_21_192
*1035 TAP_TAPCELL_ROW_21_193
*1036 TAP_TAPCELL_ROW_22_194
*1037 TAP_TAPCELL_ROW_22_195
*1038 TAP_TAPCELL_ROW_22_196
*1039 TAP_TAPCELL_ROW_22_197
*1040 TAP_TAPCELL_ROW_22_198
*1041 TAP_TAPCELL_ROW_23_199
*1042 TAP_TAPCELL_ROW_23_200
*1043 TAP_TAPCELL_ROW_23_201
*1044 TAP_TAPCELL_ROW_23_202
*1045 TAP_TAPCELL_ROW_24_203
*1046 TAP_TAPCELL_ROW_24_204
*1047 TAP_TAPCELL_ROW_24_205
*1048 TAP_TAPCELL_ROW_24_206
*1049 TAP_TAPCELL_ROW_24_207
*1050 TAP_TAPCELL_ROW_25_208
*1051 TAP_TAPCELL_ROW_25_209
*1052 TAP_TAPCELL_ROW_25_210
*1053 TAP_TAPCELL_ROW_25_211
*1054 TAP_TAPCELL_ROW_26_212
*1055 TAP_TAPCELL_ROW_26_213
*1056 TAP_TAPCELL_ROW_26_214
*1057 TAP_TAPCELL_ROW_26_215
*1058 TAP_TAPCELL_ROW_26_216
*1059 TAP_TAPCELL_ROW_27_217
*1060 TAP_TAPCELL_ROW_27_218
*1061 TAP_TAPCELL_ROW_27_219
*1062 TAP_TAPCELL_ROW_27_220
*1063 TAP_TAPCELL_ROW_28_221
*1064 TAP_TAPCELL_ROW_28_222
*1065 TAP_TAPCELL_ROW_28_223
*1066 TAP_TAPCELL_ROW_28_224
*1067 TAP_TAPCELL_ROW_28_225
*1068 TAP_TAPCELL_ROW_29_226
*1069 TAP_TAPCELL_ROW_29_227
*1070 TAP_TAPCELL_ROW_29_228
*1071 TAP_TAPCELL_ROW_29_229
*1072 TAP_TAPCELL_ROW_2_104
*1073 TAP_TAPCELL_ROW_2_105
*1074 TAP_TAPCELL_ROW_2_106
*1075 TAP_TAPCELL_ROW_2_107
*1076 TAP_TAPCELL_ROW_2_108
*1077 TAP_TAPCELL_ROW_30_230
*1078 TAP_TAPCELL_ROW_30_231
*1079 TAP_TAPCELL_ROW_30_232
*1080 TAP_TAPCELL_ROW_30_233
*1081 TAP_TAPCELL_ROW_30_234
*1082 TAP_TAPCELL_ROW_31_235
*1083 TAP_TAPCELL_ROW_31_236
*1084 TAP_TAPCELL_ROW_31_237
*1085 TAP_TAPCELL_ROW_31_238
*1086 TAP_TAPCELL_ROW_32_239
*1087 TAP_TAPCELL_ROW_32_240
*1088 TAP_TAPCELL_ROW_32_241
*1089 TAP_TAPCELL_ROW_32_242
*1090 TAP_TAPCELL_ROW_32_243
*1091 TAP_TAPCELL_ROW_33_244
*1092 TAP_TAPCELL_ROW_33_245
*1093 TAP_TAPCELL_ROW_33_246
*1094 TAP_TAPCELL_ROW_33_247
*1095 TAP_TAPCELL_ROW_34_248
*1096 TAP_TAPCELL_ROW_34_249
*1097 TAP_TAPCELL_ROW_34_250
*1098 TAP_TAPCELL_ROW_34_251
*1099 TAP_TAPCELL_ROW_34_252
*1100 TAP_TAPCELL_ROW_35_253
*1101 TAP_TAPCELL_ROW_35_254
*1102 TAP_TAPCELL_ROW_35_255
*1103 TAP_TAPCELL_ROW_35_256
*1104 TAP_TAPCELL_ROW_36_257
*1105 TAP_TAPCELL_ROW_36_258
*1106 TAP_TAPCELL_ROW_36_259
*1107 TAP_TAPCELL_ROW_36_260
*1108 TAP_TAPCELL_ROW_36_261
*1109 TAP_TAPCELL_ROW_37_262
*1110 TAP_TAPCELL_ROW_37_263
*1111 TAP_TAPCELL_ROW_37_264
*1112 TAP_TAPCELL_ROW_37_265
*1113 TAP_TAPCELL_ROW_38_266
*1114 TAP_TAPCELL_ROW_38_267
*1115 TAP_TAPCELL_ROW_38_268
*1116 TAP_TAPCELL_ROW_38_269
*1117 TAP_TAPCELL_ROW_38_270
*1118 TAP_TAPCELL_ROW_39_271
*1119 TAP_TAPCELL_ROW_39_272
*1120 TAP_TAPCELL_ROW_39_273
*1121 TAP_TAPCELL_ROW_39_274
*1122 TAP_TAPCELL_ROW_3_109
*1123 TAP_TAPCELL_ROW_3_110
*1124 TAP_TAPCELL_ROW_3_111
*1125 TAP_TAPCELL_ROW_3_112
*1126 TAP_TAPCELL_ROW_40_275
*1127 TAP_TAPCELL_ROW_40_276
*1128 TAP_TAPCELL_ROW_40_277
*1129 TAP_TAPCELL_ROW_40_278
*1130 TAP_TAPCELL_ROW_40_279
*1131 TAP_TAPCELL_ROW_41_280
*1132 TAP_TAPCELL_ROW_41_281
*1133 TAP_TAPCELL_ROW_41_282
*1134 TAP_TAPCELL_ROW_41_283
*1135 TAP_TAPCELL_ROW_42_284
*1136 TAP_TAPCELL_ROW_42_285
*1137 TAP_TAPCELL_ROW_42_286
*1138 TAP_TAPCELL_ROW_42_287
*1139 TAP_TAPCELL_ROW_42_288
*1140 TAP_TAPCELL_ROW_43_289
*1141 TAP_TAPCELL_ROW_43_290
*1142 TAP_TAPCELL_ROW_43_291
*1143 TAP_TAPCELL_ROW_43_292
*1144 TAP_TAPCELL_ROW_44_293
*1145 TAP_TAPCELL_ROW_44_294
*1146 TAP_TAPCELL_ROW_44_295
*1147 TAP_TAPCELL_ROW_44_296
*1148 TAP_TAPCELL_ROW_44_297
*1149 TAP_TAPCELL_ROW_44_298
*1150 TAP_TAPCELL_ROW_44_299
*1151 TAP_TAPCELL_ROW_44_300
*1152 TAP_TAPCELL_ROW_44_301
*1153 TAP_TAPCELL_ROW_44_302
*1154 TAP_TAPCELL_ROW_4_113
*1155 TAP_TAPCELL_ROW_4_114
*1156 TAP_TAPCELL_ROW_4_115
*1157 TAP_TAPCELL_ROW_4_116
*1158 TAP_TAPCELL_ROW_4_117
*1159 TAP_TAPCELL_ROW_5_118
*1160 TAP_TAPCELL_ROW_5_119
*1161 TAP_TAPCELL_ROW_5_120
*1162 TAP_TAPCELL_ROW_5_121
*1163 TAP_TAPCELL_ROW_6_122
*1164 TAP_TAPCELL_ROW_6_123
*1165 TAP_TAPCELL_ROW_6_124
*1166 TAP_TAPCELL_ROW_6_125
*1167 TAP_TAPCELL_ROW_6_126
*1168 TAP_TAPCELL_ROW_7_127
*1169 TAP_TAPCELL_ROW_7_128
*1170 TAP_TAPCELL_ROW_7_129
*1171 TAP_TAPCELL_ROW_7_130
*1172 TAP_TAPCELL_ROW_8_131
*1173 TAP_TAPCELL_ROW_8_132
*1174 TAP_TAPCELL_ROW_8_133
*1175 TAP_TAPCELL_ROW_8_134
*1176 TAP_TAPCELL_ROW_8_135
*1177 TAP_TAPCELL_ROW_9_136
*1178 TAP_TAPCELL_ROW_9_137
*1179 TAP_TAPCELL_ROW_9_138
*1180 TAP_TAPCELL_ROW_9_139
*1181 _091_
*1182 _092_
*1183 _093_
*1184 _094_
*1185 _095_
*1186 _096_
*1187 _097_
*1188 _098_
*1189 _099_
*1190 _100_
*1191 _101_
*1192 _102_
*1193 _103_
*1194 _104_
*1195 _105_
*1196 _106_
*1197 _107_
*1198 _108_
*1199 _109_
*1200 _110_
*1201 _111_
*1202 _112_
*1203 _113_
*1204 _114_
*1205 _115_
*1206 _116_
*1207 _117_
*1208 _118_
*1209 _119_
*1210 _120_
*1211 _121_
*1212 _122_
*1213 _123_
*1214 _124_
*1215 _125_
*1216 _126_
*1217 _127_
*1218 _128_
*1219 _129_
*1220 _130_
*1221 _131_
*1222 _132_
*1223 _133_
*1224 _134_
*1225 _135_
*1226 _136_
*1227 _137_
*1228 _138_
*1229 _139_
*1230 _140_
*1231 _141_
*1232 _142_
*1233 _143_
*1234 _144_
*1235 _145_
*1236 _146_
*1237 _147_
*1238 _148_
*1239 _149_
*1240 _150_
*1241 _151_
*1242 _152_
*1243 _153_
*1244 _154_
*1245 _155_
*1246 _156_
*1247 _157_
*1248 _158_
*1249 _159_
*1250 _160_
*1251 _161_
*1252 _162_
*1253 _163_
*1254 _164_
*1255 _165_
*1256 _166_
*1257 _167_
*1258 _168_
*1259 _169_
*1260 _170_
*1261 _171_
*1262 _172_
*1263 _173_
*1264 _174_
*1265 _175_
*1266 _176_
*1267 _177_
*1268 _178_
*1269 _179_
*1270 _180_
*1271 _181_
*1272 _182_
*1273 _183_
*1274 _184_
*1275 _185_
*1276 _186_
*1277 _187_
*1278 _188_
*1279 _189_
*1280 _190_
*1281 _191_
*1282 _192_
*1283 _193_
*1284 _194_
*1285 _195_
*1286 _196_
*1287 _197_
*1288 _198_
*1289 _199_
*1290 _200_
*1291 _201_
*1292 _202_
*1293 _203_
*1294 _204_
*1295 _205_
*1296 _209_
*1297 _210_
*1298 _211_
*1299 clkbuf_0_clk
*1300 clkbuf_1_0__f_clk
*1301 clkbuf_1_1__f_clk
*1302 ita2_24
*1303 ita2_25
*1304 ita2_26
*1305 output1
*1306 output10
*1307 output11
*1308 output12
*1309 output13
*1310 output14
*1311 output15
*1312 output16
*1313 output17
*1314 output18
*1315 output19
*1316 output2
*1317 output20
*1318 output21
*1319 output22
*1320 output23
*1321 output3
*1322 output4
*1323 output5
*1324 output6
*1325 output7
*1326 output8
*1327 output9

*PORTS
clk I
segm[0] O
segm[10] O
segm[11] O
segm[12] O
segm[13] O
segm[1] O
segm[2] O
segm[3] O
segm[4] O
segm[5] O
segm[6] O
segm[7] O
segm[8] O
segm[9] O
sel[0] O
sel[10] O
sel[11] O
sel[1] O
sel[2] O
sel[3] O
sel[4] O
sel[5] O
sel[6] O
sel[7] O
sel[8] O
sel[9] O

*D_NET *1 0.0140761
*CONN
*P clk I
*I *1299:I I *D gf180mcu_fd_sc_mcu7t5v0__clkbuf_16
*I *175:I I *D gf180mcu_fd_sc_mcu7t5v0__antenna
*CAP
1 clk 0.00363115
2 *1299:I 6.21245e-05
3 *175:I 0
4 *1:17 0.00369328
5 *1299:I *94:10 4.50449e-05
6 *1:17 *1188:B2 8.55327e-05
7 *1:17 *1191:I 0.000299314
8 *1:17 *1212:A1 0.000187673
9 *1:17 *1214:A1 0
10 *1:17 *1224:A2 4.94053e-05
11 *1:17 *1230:A1 0.000174047
12 *1:17 *1308:I 0.00303264
13 *1:17 *80:16 0.000503378
14 *1:17 *92:14 0.000505673
15 *1:17 *94:10 1.52768e-05
16 *1:17 *94:20 6.41795e-05
17 *1:17 *107:12 0.00159653
18 *1:17 *109:27 0.000116525
19 *1:17 *122:16 1.4379e-05
*RES
1 clk *1:17 45.23 
2 *1:17 *175:I 4.5 
3 *1:17 *1299:I 5.032 
*END

*D_NET *2 0.00117696
*CONN
*P segm[0] O
*I *1302:ZN O *D gf180mcu_fd_sc_mcu7t5v0__tiel
*CAP
1 segm[0] 0.000588479
2 *1302:ZN 0.000588479
*RES
1 *1302:ZN segm[0] 8.414 
*END

*D_NET *3 0.00135191
*CONN
*P segm[10] O
*I *1305:Z O *D gf180mcu_fd_sc_mcu7t5v0__buf_8
*CAP
1 segm[10] 0.000675955
2 *1305:Z 0.000675955
*RES
1 *1305:Z segm[10] 9.022 
*END

*D_NET *4 0.000931776
*CONN
*P segm[11] O
*I *1316:Z O *D gf180mcu_fd_sc_mcu7t5v0__buf_8
*CAP
1 segm[11] 0.000433654
2 *1316:Z 0.000433654
3 segm[11] segm[6] 6.44669e-05
*RES
1 *1316:Z segm[11] 12.002 
*END

*D_NET *5 0.00226587
*CONN
*P segm[12] O
*I *1321:Z O *D gf180mcu_fd_sc_mcu7t5v0__buf_8
*CAP
1 segm[12] 0.00113294
2 *1321:Z 0.00113294
*RES
1 *1321:Z segm[12] 20.91 
*END

*D_NET *6 0.00215095
*CONN
*P segm[13] O
*I *1322:Z O *D gf180mcu_fd_sc_mcu7t5v0__buf_8
*CAP
1 segm[13] 0.000819535
2 *1322:Z 0.000819535
3 segm[13] sel[10] 0.000114586
4 segm[13] *1309:I 0.00032464
5 segm[13] *1322:I 7.26556e-05
*RES
1 *1322:Z segm[13] 19.846 
*END

*D_NET *7 0.00104568
*CONN
*P segm[1] O
*I *1323:Z O *D gf180mcu_fd_sc_mcu7t5v0__buf_8
*CAP
1 segm[1] 0.000416952
2 *1323:Z 0.000416952
3 segm[1] sel[5] 0.00021178
*RES
1 *1323:Z segm[1] 12.002 
*END

*D_NET *8 0.000469555
*CONN
*P segm[2] O
*I *1324:Z O *D gf180mcu_fd_sc_mcu7t5v0__buf_8
*CAP
1 segm[2] 0.000201325
2 *1324:Z 0.000201325
3 segm[2] sel[4] 6.69047e-05
*RES
1 *1324:Z segm[2] 10.71 
*END

*D_NET *9 0.00224613
*CONN
*P segm[3] O
*I *1303:ZN O *D gf180mcu_fd_sc_mcu7t5v0__tiel
*CAP
1 segm[3] 0.00105549
2 *1303:ZN 0.00105549