*SPEF "ieee 1481-1999"
*DESIGN "ita28"
*DATE "11:11:11 Fri 11 11, 1111"
*VENDOR "OpenRCX"
*PROGRAM "Parallel Extraction"
*VERSION "1.0"
*DESIGN_FLOW "NAME_SCOPE LOCAL" "PIN_CAP NONE"
*DIVIDER /
*DELIMITER :
*BUS_DELIMITER []
*T_UNIT 1 NS
*C_UNIT 1 PF
*R_UNIT 1 OHM
*L_UNIT 1 HENRY

*NAME_MAP
*1 clk
*2 segm[0]
*3 segm[10]
*4 segm[11]
*5 segm[12]
*6 segm[13]
*7 net24
*8 segm[2]
*9 segm[3]
*10 net25
*11 net26
*12 segm[6]
*13 segm[7]
*14 segm[8]
*15 segm[9]
*16 sel[0]
*17 sel[10]
*18 sel[11]
*19 sel[1]
*20 sel[2]
*21 sel[3]
*22 sel[4]
*23 sel[5]
*24 sel[6]
*25 sel[7]
*26 sel[8]
*27 sel[9]
*30 _000_
*31 _001_
*32 _002_
*33 _003_
*34 _004_
*35 _005_
*36 _006_
*37 _007_
*38 _008_
*39 _009_
*40 _010_
*41 _011_
*42 _012_
*43 _013_
*44 _014_
*45 _015_
*46 _016_
*47 _017_
*48 _018_
*49 _019_
*50 _020_
*51 _021_
*52 _022_
*53 _023_
*54 _024_
*55 _025_
*56 _026_
*57 _027_
*58 _028_
*59 _029_
*60 _030_
*61 _031_
*62 _032_
*63 _033_
*64 _034_
*65 _035_
*66 _036_
*67 _037_
*68 _038_
*69 _039_
*70 _040_
*71 _041_
*72 _042_
*73 _043_
*74 _044_
*75 _045_
*76 _046_
*77 _047_
*78 _048_
*79 _049_
*80 _050_
*81 _051_
*82 _052_
*83 _053_
*84 _054_
*85 _055_
*86 _056_
*87 _057_
*88 _058_
*89 _059_
*90 _060_
*91 _061_
*92 _062_
*93 _063_
*94 _064_
*95 _065_
*96 _066_
*97 _067_
*98 _068_
*99 _069_
*100 _070_
*101 _071_
*102 _072_
*103 _073_
*104 _074_
*105 _075_
*106 _076_
*107 _077_
*108 _078_
*109 _079_
*110 _080_
*111 _081_
*112 _082_
*113 _083_
*114 _084_
*115 _085_
*116 _086_
*117 _087_
*118 _088_
*119 _089_
*120 _090_
*121 _091_
*122 _092_
*123 _093_
*124 _094_
*125 _095_
*126 _096_
*127 _097_
*128 _098_
*129 _099_
*130 _100_
*131 _101_
*132 _102_
*133 _103_
*134 _104_
*135 _105_
*136 _106_
*137 _107_
*138 clknet_0_clk
*139 clknet_1_0__leaf_clk
*140 clknet_1_1__leaf_clk
*141 dut28\.count\[0\]
*142 dut28\.count\[1\]
*143 dut28\.count\[2\]
*144 dut28\.count\[3\]
*145 net1
*146 net10
*147 net11
*148 net12
*149 net13
*150 net14
*151 net15
*152 net16
*153 net17
*154 net18
*155 net19
*156 net2
*157 net20
*158 net21
*159 net22
*160 net23
*161 net3
*162 net4
*163 net5
*164 net6
*165 net7
*166 net8
*167 net9
*168 ANTENNA__216__CLK
*169 ANTENNA__217__CLK
*170 ANTENNA__218__CLK
*171 ANTENNA__219__CLK
*172 ANTENNA__220__CLK
*173 ANTENNA__221__CLK
*174 ANTENNA__222__CLK
*175 ANTENNA__223__CLK
*176 ANTENNA__224__CLK
*177 ANTENNA__225__CLK
*178 ANTENNA__226__CLK
*179 ANTENNA__227__CLK
*180 ANTENNA__228__CLK
*181 ANTENNA__229__CLK
*182 ANTENNA__230__CLK
*183 ANTENNA__231__CLK
*184 ANTENNA__232__CLK
*185 ANTENNA__233__CLK
*186 ANTENNA__234__CLK
*187 ANTENNA__235__CLK
*188 ANTENNA__236__CLK
*189 ANTENNA__237__CLK
*190 ANTENNA__238__CLK
*191 ANTENNA__239__CLK
*192 ANTENNA_clkbuf_0_clk_I
*193 FILLER_0_0_104
*194 FILLER_0_0_138
*195 FILLER_0_0_165
*196 FILLER_0_0_169
*197 FILLER_0_0_172
*198 FILLER_0_0_2
*199 FILLER_0_0_206
*200 FILLER_0_0_210
*201 FILLER_0_0_237
*202 FILLER_0_0_240
*203 FILLER_0_0_274
*204 FILLER_0_0_308
*205 FILLER_0_0_342
*206 FILLER_0_0_346
*207 FILLER_0_0_348
*208 FILLER_0_0_36
*209 FILLER_0_0_70
*210 FILLER_0_10_101
*211 FILLER_0_10_107
*212 FILLER_0_10_171
*213 FILLER_0_10_177
*214 FILLER_0_10_2
*215 FILLER_0_10_241
*216 FILLER_0_10_247
*217 FILLER_0_10_311
*218 FILLER_0_10_317
*219 FILLER_0_10_34
*220 FILLER_0_10_37
*221 FILLER_0_11_136
*222 FILLER_0_11_142
*223 FILLER_0_11_2
*224 FILLER_0_11_206
*225 FILLER_0_11_212
*226 FILLER_0_11_276
*227 FILLER_0_11_282
*228 FILLER_0_11_346
*229 FILLER_0_11_348
*230 FILLER_0_11_66
*231 FILLER_0_11_72
*232 FILLER_0_12_101
*233 FILLER_0_12_107
*234 FILLER_0_12_123
*235 FILLER_0_12_127
*236 FILLER_0_12_138
*237 FILLER_0_12_142
*238 FILLER_0_12_158
*239 FILLER_0_12_172
*240 FILLER_0_12_174
*241 FILLER_0_12_177
*242 FILLER_0_12_2
*243 FILLER_0_12_241
*244 FILLER_0_12_247
*245 FILLER_0_12_311
*246 FILLER_0_12_317
*247 FILLER_0_12_34
*248 FILLER_0_12_37
*249 FILLER_0_13_104
*250 FILLER_0_13_106
*251 FILLER_0_13_142
*252 FILLER_0_13_146
*253 FILLER_0_13_154
*254 FILLER_0_13_166
*255 FILLER_0_13_196
*256 FILLER_0_13_2
*257 FILLER_0_13_200
*258 FILLER_0_13_208
*259 FILLER_0_13_212
*260 FILLER_0_13_216
*261 FILLER_0_13_232
*262 FILLER_0_13_239
*263 FILLER_0_13_271
*264 FILLER_0_13_279
*265 FILLER_0_13_282
*266 FILLER_0_13_346
*267 FILLER_0_13_348
*268 FILLER_0_13_66
*269 FILLER_0_13_72
*270 FILLER_0_14_101
*271 FILLER_0_14_107
*272 FILLER_0_14_109
*273 FILLER_0_14_139
*274 FILLER_0_14_143
*275 FILLER_0_14_177
*276 FILLER_0_14_181
*277 FILLER_0_14_183
*278 FILLER_0_14_2
*279 FILLER_0_14_242
*280 FILLER_0_14_244
*281 FILLER_0_14_247
*282 FILLER_0_14_251
*283 FILLER_0_14_317
*284 FILLER_0_14_34
*285 FILLER_0_14_37
*286 FILLER_0_15_104
*287 FILLER_0_15_120
*288 FILLER_0_15_136
*289 FILLER_0_15_142
*290 FILLER_0_15_174
*291 FILLER_0_15_190
*292 FILLER_0_15_199
*293 FILLER_0_15_2
*294 FILLER_0_15_207
*295 FILLER_0_15_209
*296 FILLER_0_15_220
*297 FILLER_0_15_253
*298 FILLER_0_15_269
*299 FILLER_0_15_277
*300 FILLER_0_15_279
*301 FILLER_0_15_282
*302 FILLER_0_15_314
*303 FILLER_0_15_322
*304 FILLER_0_15_66
*305 FILLER_0_15_72
*306 FILLER_0_16_101
*307 FILLER_0_16_107
*308 FILLER_0_16_139
*309 FILLER_0_16_147
*310 FILLER_0_16_173
*311 FILLER_0_16_177
*312 FILLER_0_16_193
*313 FILLER_0_16_2
*314 FILLER_0_16_201
*315 FILLER_0_16_208
*316 FILLER_0_16_216
*317 FILLER_0_16_231
*318 FILLER_0_16_238
*319 FILLER_0_16_242
*320 FILLER_0_16_244
*321 FILLER_0_16_247
*322 FILLER_0_16_311
*323 FILLER_0_16_317
*324 FILLER_0_16_321
*325 FILLER_0_16_34
*326 FILLER_0_16_37
*327 FILLER_0_17_115
*328 FILLER_0_17_119
*329 FILLER_0_17_135
*330 FILLER_0_17_139
*331 FILLER_0_17_142
*332 FILLER_0_17_150
*333 FILLER_0_17_160
*334 FILLER_0_17_168
*335 FILLER_0_17_172
*336 FILLER_0_17_174
*337 FILLER_0_17_181
*338 FILLER_0_17_197
*339 FILLER_0_17_2
*340 FILLER_0_17_205
*341 FILLER_0_17_209
*342 FILLER_0_17_212
*343 FILLER_0_17_236
*344 FILLER_0_17_268
*345 FILLER_0_17_276
*346 FILLER_0_17_282
*347 FILLER_0_17_314
*348 FILLER_0_17_322
*349 FILLER_0_17_66
*350 FILLER_0_17_72
*351 FILLER_0_17_80
*352 FILLER_0_17_84
*353 FILLER_0_18_101
*354 FILLER_0_18_107
*355 FILLER_0_18_115
*356 FILLER_0_18_145
*357 FILLER_0_18_149
*358 FILLER_0_18_153
*359 FILLER_0_18_160
*360 FILLER_0_18_162
*361 FILLER_0_18_177
*362 FILLER_0_18_179
*363 FILLER_0_18_188
*364 FILLER_0_18_192
*365 FILLER_0_18_2
*366 FILLER_0_18_205
*367 FILLER_0_18_221
*368 FILLER_0_18_229
*369 FILLER_0_18_238
*370 FILLER_0_18_242
*371 FILLER_0_18_244
*372 FILLER_0_18_247
*373 FILLER_0_18_311
*374 FILLER_0_18_317
*375 FILLER_0_18_34
*376 FILLER_0_18_37
*377 FILLER_0_19_137
*378 FILLER_0_19_139
*379 FILLER_0_19_142
*380 FILLER_0_19_158
*381 FILLER_0_19_182
*382 FILLER_0_19_197
*383 FILLER_0_19_219
*384 FILLER_0_19_221
*385 FILLER_0_19_253
*386 FILLER_0_19_269
*387 FILLER_0_19_277
*388 FILLER_0_19_279
*389 FILLER_0_19_28
*390 FILLER_0_19_282
*391 FILLER_0_19_314
*392 FILLER_0_19_322
*393 FILLER_0_19_60
*394 FILLER_0_19_68
*395 FILLER_0_19_72
*396 FILLER_0_1_136
*397 FILLER_0_1_168
*398 FILLER_0_1_2
*399 FILLER_0_1_200
*400 FILLER_0_1_208
*401 FILLER_0_1_212
*402 FILLER_0_1_276
*403 FILLER_0_1_282
*404 FILLER_0_1_346
*405 FILLER_0_1_348
*406 FILLER_0_1_66
*407 FILLER_0_1_72
*408 FILLER_0_20_101
*409 FILLER_0_20_107
*410 FILLER_0_20_111
*411 FILLER_0_20_121
*412 FILLER_0_20_125
*413 FILLER_0_20_133
*414 FILLER_0_20_147
*415 FILLER_0_20_151
*416 FILLER_0_20_167
*417 FILLER_0_20_2
*418 FILLER_0_20_201
*419 FILLER_0_20_209
*420 FILLER_0_20_224
*421 FILLER_0_20_241
*422 FILLER_0_20_247
*423 FILLER_0_20_311
*424 FILLER_0_20_317
*425 FILLER_0_20_34
*426 FILLER_0_20_37
*427 FILLER_0_21_104
*428 FILLER_0_21_108
*429 FILLER_0_21_110
*430 FILLER_0_21_113
*431 FILLER_0_21_121
*432 FILLER_0_21_125
*433 FILLER_0_21_127
*434 FILLER_0_21_135
*435 FILLER_0_21_139
*436 FILLER_0_21_142
*437 FILLER_0_21_146
*438 FILLER_0_21_175
*439 FILLER_0_21_2
*440 FILLER_0_21_206
*441 FILLER_0_21_212
*442 FILLER_0_21_214
*443 FILLER_0_21_221
*444 FILLER_0_21_254
*445 FILLER_0_21_270
*446 FILLER_0_21_278
*447 FILLER_0_21_282
*448 FILLER_0_21_346
*449 FILLER_0_21_348
*450 FILLER_0_21_66
*451 FILLER_0_21_72
*452 FILLER_0_22_101
*453 FILLER_0_22_107
*454 FILLER_0_22_177
*455 FILLER_0_22_179
*456 FILLER_0_22_187
*457 FILLER_0_22_2
*458 FILLER_0_22_241
*459 FILLER_0_22_247
*460 FILLER_0_22_311
*461 FILLER_0_22_317
*462 FILLER_0_22_321
*463 FILLER_0_22_34
*464 FILLER_0_22_37
*465 FILLER_0_23_111
*466 FILLER_0_23_137
*467 FILLER_0_23_139
*468 FILLER_0_23_142
*469 FILLER_0_23_144
*470 FILLER_0_23_209
*471 FILLER_0_23_235
*472 FILLER_0_23_267
*473 FILLER_0_23_275
*474 FILLER_0_23_279
*475 FILLER_0_23_28
*476 FILLER_0_23_282
*477 FILLER_0_23_346
*478 FILLER_0_23_348
*479 FILLER_0_23_60
*480 FILLER_0_23_68
*481 FILLER_0_23_72
*482 FILLER_0_23_80
*483 FILLER_0_24_104
*484 FILLER_0_24_113
*485 FILLER_0_24_115
*486 FILLER_0_24_135
*487 FILLER_0_24_137
*488 FILLER_0_24_172
*489 FILLER_0_24_174
*490 FILLER_0_24_214
*491 FILLER_0_24_247
*492 FILLER_0_24_251
*493 FILLER_0_24_28
*494 FILLER_0_24_317
*495 FILLER_0_24_32
*496 FILLER_0_24_34
*497 FILLER_0_24_37
*498 FILLER_0_24_69
*499 FILLER_0_24_73
*500 FILLER_0_25_102
*501 FILLER_0_25_106
*502 FILLER_0_25_122
*503 FILLER_0_25_128
*504 FILLER_0_25_136
*505 FILLER_0_25_142
*506 FILLER_0_25_177
*507 FILLER_0_25_181
*508 FILLER_0_25_207
*509 FILLER_0_25_209
*510 FILLER_0_25_218
*511 FILLER_0_25_255
*512 FILLER_0_25_271
*513 FILLER_0_25_279
*514 FILLER_0_25_28
*515 FILLER_0_25_282
*516 FILLER_0_25_314
*517 FILLER_0_25_322
*518 FILLER_0_25_60
*519 FILLER_0_25_68
*520 FILLER_0_25_72
*521 FILLER_0_25_88
*522 FILLER_0_26_101
*523 FILLER_0_26_107
*524 FILLER_0_26_111
*525 FILLER_0_26_113
*526 FILLER_0_26_129
*527 FILLER_0_26_145
*528 FILLER_0_26_147
*529 FILLER_0_26_160
*530 FILLER_0_26_162
*531 FILLER_0_26_174
*532 FILLER_0_26_184
*533 FILLER_0_26_241
*534 FILLER_0_26_247
*535 FILLER_0_26_28
*536 FILLER_0_26_311
*537 FILLER_0_26_317
*538 FILLER_0_26_32
*539 FILLER_0_26_321
*540 FILLER_0_26_34
*541 FILLER_0_26_37
*542 FILLER_0_27_132
*543 FILLER_0_27_136
*544 FILLER_0_27_142
*545 FILLER_0_27_152
*546 FILLER_0_27_156
*547 FILLER_0_27_158
*548 FILLER_0_27_188
*549 FILLER_0_27_192
*550 FILLER_0_27_201
*551 FILLER_0_27_209
*552 FILLER_0_27_212
*553 FILLER_0_27_220
*554 FILLER_0_27_233
*555 FILLER_0_27_237
*556 FILLER_0_27_269
*557 FILLER_0_27_277
*558 FILLER_0_27_279
*559 FILLER_0_27_28
*560 FILLER_0_27_282
*561 FILLER_0_27_314
*562 FILLER_0_27_322
*563 FILLER_0_27_60
*564 FILLER_0_27_68
*565 FILLER_0_27_72
*566 FILLER_0_27_88
*567 FILLER_0_27_92
*568 FILLER_0_28_101
*569 FILLER_0_28_107
*570 FILLER_0_28_150
*571 FILLER_0_28_162
*572 FILLER_0_28_170
*573 FILLER_0_28_174
*574 FILLER_0_28_177
*575 FILLER_0_28_2
*576 FILLER_0_28_241
*577 FILLER_0_28_247
*578 FILLER_0_28_311
*579 FILLER_0_28_317
*580 FILLER_0_28_34
*581 FILLER_0_28_37
*582 FILLER_0_29_125
*583 FILLER_0_29_129
*584 FILLER_0_29_137
*585 FILLER_0_29_139
*586 FILLER_0_29_142
*587 FILLER_0_29_153
*588 FILLER_0_29_161
*589 FILLER_0_29_165
*590 FILLER_0_29_212
*591 FILLER_0_29_216
*592 FILLER_0_29_28
*593 FILLER_0_29_282
*594 FILLER_0_29_346
*595 FILLER_0_29_348
*596 FILLER_0_29_60
*597 FILLER_0_29_68
*598 FILLER_0_29_72
*599 FILLER_0_29_88
*600 FILLER_0_2_101
*601 FILLER_0_2_107
*602 FILLER_0_2_171
*603 FILLER_0_2_177
*604 FILLER_0_2_2
*605 FILLER_0_2_241
*606 FILLER_0_2_247
*607 FILLER_0_2_311
*608 FILLER_0_2_317
*609 FILLER_0_2_34
*610 FILLER_0_2_37
*611 FILLER_0_30_101
*612 FILLER_0_30_107
*613 FILLER_0_30_123
*614 FILLER_0_30_127
*615 FILLER_0_30_129
*616 FILLER_0_30_185
*617 FILLER_0_30_2
*618 FILLER_0_30_217
*619 FILLER_0_30_233
*620 FILLER_0_30_241
*621 FILLER_0_30_247
*622 FILLER_0_30_311
*623 FILLER_0_30_317
*624 FILLER_0_30_34
*625 FILLER_0_30_37
*626 FILLER_0_31_136
*627 FILLER_0_31_142
*628 FILLER_0_31_158
*629 FILLER_0_31_195
*630 FILLER_0_31_199
*631 FILLER_0_31_2
*632 FILLER_0_31_207
*633 FILLER_0_31_209
*634 FILLER_0_31_212
*635 FILLER_0_31_276
*636 FILLER_0_31_282
*637 FILLER_0_31_346
*638 FILLER_0_31_348
*639 FILLER_0_31_66
*640 FILLER_0_31_72
*641 FILLER_0_32_101
*642 FILLER_0_32_107
*643 FILLER_0_32_171
*644 FILLER_0_32_177
*645 FILLER_0_32_181
*646 FILLER_0_32_186
*647 FILLER_0_32_2
*648 FILLER_0_32_218
*649 FILLER_0_32_234
*650 FILLER_0_32_242
*651 FILLER_0_32_244
*652 FILLER_0_32_247
*653 FILLER_0_32_311
*654 FILLER_0_32_317
*655 FILLER_0_32_34
*656 FILLER_0_32_37
*657 FILLER_0_33_136
*658 FILLER_0_33_142
*659 FILLER_0_33_2
*660 FILLER_0_33_206
*661 FILLER_0_33_212
*662 FILLER_0_33_276
*663 FILLER_0_33_282
*664 FILLER_0_33_346
*665 FILLER_0_33_348
*666 FILLER_0_33_66
*667 FILLER_0_33_72
*668 FILLER_0_34_101
*669 FILLER_0_34_107
*670 FILLER_0_34_171
*671 FILLER_0_34_177
*672 FILLER_0_34_2
*673 FILLER_0_34_241
*674 FILLER_0_34_247
*675 FILLER_0_34_311
*676 FILLER_0_34_317
*677 FILLER_0_34_34
*678 FILLER_0_34_37
*679 FILLER_0_35_136
*680 FILLER_0_35_142
*681 FILLER_0_35_2
*682 FILLER_0_35_206
*683 FILLER_0_35_212
*684 FILLER_0_35_276
*685 FILLER_0_35_282
*686 FILLER_0_35_346
*687 FILLER_0_35_348
*688 FILLER_0_35_66
*689 FILLER_0_35_72
*690 FILLER_0_36_101
*691 FILLER_0_36_107
*692 FILLER_0_36_171
*693 FILLER_0_36_177
*694 FILLER_0_36_2
*695 FILLER_0_36_241
*696 FILLER_0_36_247
*697 FILLER_0_36_311
*698 FILLER_0_36_317
*699 FILLER_0_36_34
*700 FILLER_0_36_37
*701 FILLER_0_37_136
*702 FILLER_0_37_142
*703 FILLER_0_37_2
*704 FILLER_0_37_206
*705 FILLER_0_37_212
*706 FILLER_0_37_276
*707 FILLER_0_37_282
*708 FILLER_0_37_346
*709 FILLER_0_37_348
*710 FILLER_0_37_66
*711 FILLER_0_37_72
*712 FILLER_0_38_101
*713 FILLER_0_38_107
*714 FILLER_0_38_171
*715 FILLER_0_38_177
*716 FILLER_0_38_2
*717 FILLER_0_38_241
*718 FILLER_0_38_247
*719 FILLER_0_38_311
*720 FILLER_0_38_317
*721 FILLER_0_38_34
*722 FILLER_0_38_37
*723 FILLER_0_39_136
*724 FILLER_0_39_142
*725 FILLER_0_39_2
*726 FILLER_0_39_206
*727 FILLER_0_39_212
*728 FILLER_0_39_276
*729 FILLER_0_39_282
*730 FILLER_0_39_346
*731 FILLER_0_39_348
*732 FILLER_0_39_66
*733 FILLER_0_39_72
*734 FILLER_0_3_136
*735 FILLER_0_3_142
*736 FILLER_0_3_2
*737 FILLER_0_3_206
*738 FILLER_0_3_212
*739 FILLER_0_3_276
*740 FILLER_0_3_282
*741 FILLER_0_3_346
*742 FILLER_0_3_348
*743 FILLER_0_3_66
*744 FILLER_0_3_72
*745 FILLER_0_40_101
*746 FILLER_0_40_107
*747 FILLER_0_40_171
*748 FILLER_0_40_177
*749 FILLER_0_40_2
*750 FILLER_0_40_241
*751 FILLER_0_40_247
*752 FILLER_0_40_311
*753 FILLER_0_40_317
*754 FILLER_0_40_34
*755 FILLER_0_40_37
*756 FILLER_0_41_136
*757 FILLER_0_41_142
*758 FILLER_0_41_2
*759 FILLER_0_41_206
*760 FILLER_0_41_212
*761 FILLER_0_41_276
*762 FILLER_0_41_282
*763 FILLER_0_41_346
*764 FILLER_0_41_348
*765 FILLER_0_41_66
*766 FILLER_0_41_72
*767 FILLER_0_42_101
*768 FILLER_0_42_107
*769 FILLER_0_42_171
*770 FILLER_0_42_177
*771 FILLER_0_42_22
*772 FILLER_0_42_241
*773 FILLER_0_42_247
*774 FILLER_0_42_30
*775 FILLER_0_42_311
*776 FILLER_0_42_317
*777 FILLER_0_42_34
*778 FILLER_0_42_37
*779 FILLER_0_42_6
*780 FILLER_0_43_136
*781 FILLER_0_43_142
*782 FILLER_0_43_150
*783 FILLER_0_43_155
*784 FILLER_0_43_183
*785 FILLER_0_43_199
*786 FILLER_0_43_2
*787 FILLER_0_43_207
*788 FILLER_0_43_209
*789 FILLER_0_43_238
*790 FILLER_0_43_270
*791 FILLER_0_43_278
*792 FILLER_0_43_282
*793 FILLER_0_43_346
*794 FILLER_0_43_348
*795 FILLER_0_43_66
*796 FILLER_0_43_72
*797 FILLER_0_44_104
*798 FILLER_0_44_138
*799 FILLER_0_44_142
*800 FILLER_0_44_172
*801 FILLER_0_44_176
*802 FILLER_0_44_2
*803 FILLER_0_44_236
*804 FILLER_0_44_240
*805 FILLER_0_44_274
*806 FILLER_0_44_308
*807 FILLER_0_44_342
*808 FILLER_0_44_346
*809 FILLER_0_44_348
*810 FILLER_0_44_36
*811 FILLER_0_44_70
*812 FILLER_0_4_101
*813 FILLER_0_4_107
*814 FILLER_0_4_171
*815 FILLER_0_4_177
*816 FILLER_0_4_2
*817 FILLER_0_4_241
*818 FILLER_0_4_247
*819 FILLER_0_4_311
*820 FILLER_0_4_317
*821 FILLER_0_4_34
*822 FILLER_0_4_37
*823 FILLER_0_5_136
*824 FILLER_0_5_142
*825 FILLER_0_5_2
*826 FILLER_0_5_206
*827 FILLER_0_5_212
*828 FILLER_0_5_276
*829 FILLER_0_5_282
*830 FILLER_0_5_346
*831 FILLER_0_5_348
*832 FILLER_0_5_66
*833 FILLER_0_5_72
*834 FILLER_0_6_101
*835 FILLER_0_6_107
*836 FILLER_0_6_171
*837 FILLER_0_6_177
*838 FILLER_0_6_2
*839 FILLER_0_6_241
*840 FILLER_0_6_247
*841 FILLER_0_6_311
*842 FILLER_0_6_317
*843 FILLER_0_6_34
*844 FILLER_0_6_37
*845 FILLER_0_7_136
*846 FILLER_0_7_142
*847 FILLER_0_7_2
*848 FILLER_0_7_206
*849 FILLER_0_7_212
*850 FILLER_0_7_276
*851 FILLER_0_7_282
*852 FILLER_0_7_346
*853 FILLER_0_7_348
*854 FILLER_0_7_66
*855 FILLER_0_7_72
*856 FILLER_0_8_101
*857 FILLER_0_8_107
*858 FILLER_0_8_171
*859 FILLER_0_8_177
*860 FILLER_0_8_2
*861 FILLER_0_8_241
*862 FILLER_0_8_247
*863 FILLER_0_8_311
*864 FILLER_0_8_317
*865 FILLER_0_8_34
*866 FILLER_0_8_37
*867 FILLER_0_9_136
*868 FILLER_0_9_142
*869 FILLER_0_9_2
*870 FILLER_0_9_206
*871 FILLER_0_9_212
*872 FILLER_0_9_276
*873 FILLER_0_9_282
*874 FILLER_0_9_346
*875 FILLER_0_9_348
*876 FILLER_0_9_66
*877 FILLER_0_9_72
*878 PHY_EDGE_ROW_0_Left_45
*879 PHY_EDGE_ROW_0_Right_0
*880 PHY_EDGE_ROW_10_Left_55
*881 PHY_EDGE_ROW_10_Right_10
*882 PHY_EDGE_ROW_11_Left_56
*883 PHY_EDGE_ROW_11_Right_11
*884 PHY_EDGE_ROW_12_Left_57
*885 PHY_EDGE_ROW_12_Right_12
*886 PHY_EDGE_ROW_13_Left_58
*887 PHY_EDGE_ROW_13_Right_13
*888 PHY_EDGE_ROW_14_Left_59
*889 PHY_EDGE_ROW_14_Right_14
*890 PHY_EDGE_ROW_15_Left_60
*891 PHY_EDGE_ROW_15_Right_15
*892 PHY_EDGE_ROW_16_Left_61
*893 PHY_EDGE_ROW_16_Right_16
*894 PHY_EDGE_ROW_17_Left_62
*895 PHY_EDGE_ROW_17_Right_17
*896 PHY_EDGE_ROW_18_Left_63
*897 PHY_EDGE_ROW_18_Right_18
*898 PHY_EDGE_ROW_19_Left_64
*899 PHY_EDGE_ROW_19_Right_19
*900 PHY_EDGE_ROW_1_Left_46
*901 PHY_EDGE_ROW_1_Right_1
*902 PHY_EDGE_ROW_20_Left_65
*903 PHY_EDGE_ROW_20_Right_20
*904 PHY_EDGE_ROW_21_Left_66
*905 PHY_EDGE_ROW_21_Right_21
*906 PHY_EDGE_ROW_22_Left_67
*907 PHY_EDGE_ROW_22_Right_22
*908 PHY_EDGE_ROW_23_Left_68
*909 PHY_EDGE_ROW_23_Right_23
*910 PHY_EDGE_ROW_24_Left_69
*911 PHY_EDGE_ROW_24_Right_24
*912 PHY_EDGE_ROW_25_Left_70
*913 PHY_EDGE_ROW_25_Right_25
*914 PHY_EDGE_ROW_26_Left_71
*915 PHY_EDGE_ROW_26_Right_26
*916 PHY_EDGE_ROW_27_Left_72
*917 PHY_EDGE_ROW_27_Right_27
*918 PHY_EDGE_ROW_28_Left_73
*919 PHY_EDGE_ROW_28_Right_28
*920 PHY_EDGE_ROW_29_Left_74
*921 PHY_EDGE_ROW_29_Right_29
*922 PHY_EDGE_ROW_2_Left_47
*923 PHY_EDGE_ROW_2_Right_2
*924 PHY_EDGE_ROW_30_Left_75
*925 PHY_EDGE_ROW_30_Right_30
*926 PHY_EDGE_ROW_31_Left_76
*927 PHY_EDGE_ROW_31_Right_31
*928 PHY_EDGE_ROW_32_Left_77
*929 PHY_EDGE_ROW_32_Right_32
*930 PHY_EDGE_ROW_33_Left_78
*931 PHY_EDGE_ROW_33_Right_33
*932 PHY_EDGE_ROW_34_Left_79
*933 PHY_EDGE_ROW_34_Right_34
*934 PHY_EDGE_ROW_35_Left_80
*935 PHY_EDGE_ROW_35_Right_35
*936 PHY_EDGE_ROW_36_Left_81
*937 PHY_EDGE_ROW_36_Right_36
*938 PHY_EDGE_ROW_37_Left_82
*939 PHY_EDGE_ROW_37_Right_37
*940 PHY_EDGE_ROW_38_Left_83
*941 PHY_EDGE_ROW_38_Right_38
*942 PHY_EDGE_ROW_39_Left_84
*943 PHY_EDGE_ROW_39_Right_39
*944 PHY_EDGE_ROW_3_Left_48
*945 PHY_EDGE_ROW_3_Right_3
*946 PHY_EDGE_ROW_40_Left_85
*947 PHY_EDGE_ROW_40_Right_40
*948 PHY_EDGE_ROW_41_Left_86
*949 PHY_EDGE_ROW_41_Right_41
*950 PHY_EDGE_ROW_42_Left_87
*951 PHY_EDGE_ROW_42_Right_42
*952 PHY_EDGE_ROW_43_Left_88
*953 PHY_EDGE_ROW_43_Right_43
*954 PHY_EDGE_ROW_44_Left_89
*955 PHY_EDGE_ROW_44_Right_44
*956 PHY_EDGE_ROW_4_Left_49
*957 PHY_EDGE_ROW_4_Right_4
*958 PHY_EDGE_ROW_5_Left_50
*959 PHY_EDGE_ROW_5_Right_5
*960 PHY_EDGE_ROW_6_Left_51
*961 PHY_EDGE_ROW_6_Right_6
*962 PHY_EDGE_ROW_7_Left_52
*963 PHY_EDGE_ROW_7_Right_7
*964 PHY_EDGE_ROW_8_Left_53
*965 PHY_EDGE_ROW_8_Right_8
*966 PHY_EDGE_ROW_9_Left_54
*967 PHY_EDGE_ROW_9_Right_9
*968 TAP_TAPCELL_ROW_0_90
*969 TAP_TAPCELL_ROW_0_91
*970 TAP_TAPCELL_ROW_0_92
*971 TAP_TAPCELL_ROW_0_93
*972 TAP_TAPCELL_ROW_0_94
*973 TAP_TAPCELL_ROW_0_95
*974 TAP_TAPCELL_ROW_0_96
*975 TAP_TAPCELL_ROW_0_97
*976 TAP_TAPCELL_ROW_0_98
*977 TAP_TAPCELL_ROW_0_99
*978 TAP_TAPCELL_ROW_10_140
*979 TAP_TAPCELL_ROW_10_141
*980 TAP_TAPCELL_ROW_10_142
*981 TAP_TAPCELL_ROW_10_143
*982 TAP_TAPCELL_ROW_10_144
*983 TAP_TAPCELL_ROW_11_145
*984 TAP_TAPCELL_ROW_11_146
*985 TAP_TAPCELL_ROW_11_147
*986 TAP_TAPCELL_ROW_11_148
*987 TAP_TAPCELL_ROW_12_149
*988 TAP_TAPCELL_ROW_12_150
*989 TAP_TAPCELL_ROW_12_151
*990 TAP_TAPCELL_ROW_12_152
*991 TAP_TAPCELL_ROW_12_153
*992 TAP_TAPCELL_ROW_13_154
*993 TAP_TAPCELL_ROW_13_155
*994 TAP_TAPCELL_ROW_13_156
*995 TAP_TAPCELL_ROW_13_157
*996 TAP_TAPCELL_ROW_14_158
*997 TAP_TAPCELL_ROW_14_159
*998 TAP_TAPCELL_ROW_14_160
*999 TAP_TAPCELL_ROW_14_161
*1000 TAP_TAPCELL_ROW_14_162
*1001 TAP_TAPCELL_ROW_15_163
*1002 TAP_TAPCELL_ROW_15_164
*1003 TAP_TAPCELL_ROW_15_165
*1004 TAP_TAPCELL_ROW_15_166
*1005 TAP_TAPCELL_ROW_16_167
*1006 TAP_TAPCELL_ROW_16_168
*1007 TAP_TAPCELL_ROW_16_169
*1008 TAP_TAPCELL_ROW_16_170
*1009 TAP_TAPCELL_ROW_16_171
*1010 TAP_TAPCELL_ROW_17_172
*1011 TAP_TAPCELL_ROW_17_173
*1012 TAP_TAPCELL_ROW_17_174
*1013 TAP_TAPCELL_ROW_17_175
*1014 TAP_TAPCELL_ROW_18_176
*1015 TAP_TAPCELL_ROW_18_177
*1016 TAP_TAPCELL_ROW_18_178
*1017 TAP_TAPCELL_ROW_18_179
*1018 TAP_TAPCELL_ROW_18_180
*1019 TAP_TAPCELL_ROW_19_181
*1020 TAP_TAPCELL_ROW_19_182
*1021 TAP_TAPCELL_ROW_19_183
*1022 TAP_TAPCELL_ROW_19_184
*1023 TAP_TAPCELL_ROW_1_100
*1024 TAP_TAPCELL_ROW_1_101
*1025 TAP_TAPCELL_ROW_1_102
*1026 TAP_TAPCELL_ROW_1_103
*1027 TAP_TAPCELL_ROW_20_185
*1028 TAP_TAPCELL_ROW_20_186
*1029 TAP_TAPCELL_ROW_20_187
*1030 TAP_TAPCELL_ROW_20_188
*1031 TAP_TAPCELL_ROW_20_189
*1032 TAP_TAPCELL_ROW_21_190
*1033 TAP_TAPCELL_ROW_21_191
*1034 TAP_TAPCELL_ROW_21_192
*1035 TAP_TAPCELL_ROW_21_193
*1036 TAP_TAPCELL_ROW_22_194
*1037 TAP_TAPCELL_ROW_22_195
*1038 TAP_TAPCELL_ROW_22_196
*1039 TAP_TAPCELL_ROW_22_197
*1040 TAP_TAPCELL_ROW_22_198
*1041 TAP_TAPCELL_ROW_23_199
*1042 TAP_TAPCELL_ROW_23_200
*1043 TAP_TAPCELL_ROW_23_201
*1044 TAP_TAPCELL_ROW_23_202
*1045 TAP_TAPCELL_ROW_24_203
*1046 TAP_TAPCELL_ROW_24_204
*1047 TAP_TAPCELL_ROW_24_205
*1048 TAP_TAPCELL_ROW_24_206
*1049 TAP_TAPCELL_ROW_24_207
*1050 TAP_TAPCELL_ROW_25_208
*1051 TAP_TAPCELL_ROW_25_209
*1052 TAP_TAPCELL_ROW_25_210
*1053 TAP_TAPCELL_ROW_25_211
*1054 TAP_TAPCELL_ROW_26_212
*1055 TAP_TAPCELL_ROW_26_213
*1056 TAP_TAPCELL_ROW_26_214
*1057 TAP_TAPCELL_ROW_26_215
*1058 TAP_TAPCELL_ROW_26_216
*1059 TAP_TAPCELL_ROW_27_217
*1060 TAP_TAPCELL_ROW_27_218
*1061 TAP_TAPCELL_ROW_27_219
*1062 TAP_TAPCELL_ROW_27_220
*1063 TAP_TAPCELL_ROW_28_221
*1064 TAP_TAPCELL_ROW_28_222
*1065 TAP_TAPCELL_ROW_28_223
*1066 TAP_TAPCELL_ROW_28_224
*1067 TAP_TAPCELL_ROW_28_225
*1068 TAP_TAPCELL_ROW_29_226
*1069 TAP_TAPCELL_ROW_29_227
*1070 TAP_TAPCELL_ROW_29_228
*1071 TAP_TAPCELL_ROW_29_229
*1072 TAP_TAPCELL_ROW_2_104
*1073 TAP_TAPCELL_ROW_2_105
*1074 TAP_TAPCELL_ROW_2_106
*1075 TAP_TAPCELL_ROW_2_107
*1076 TAP_TAPCELL_ROW_2_108
*1077 TAP_TAPCELL_ROW_30_230
*1078 TAP_TAPCELL_ROW_30_231
*1079 TAP_TAPCELL_ROW_30_232
*1080 TAP_TAPCELL_ROW_30_233
*1081 TAP_TAPCELL_ROW_30_234
*1082 TAP_TAPCELL_ROW_31_235
*1083 TAP_TAPCELL_ROW_31_236
*1084 TAP_TAPCELL_ROW_31_237
*1085 TAP_TAPCELL_ROW_31_238
*1086 TAP_TAPCELL_ROW_32_239
*1087 TAP_TAPCELL_ROW_32_240
*1088 TAP_TAPCELL_ROW_32_241
*1089 TAP_TAPCELL_ROW_32_242
*1090 TAP_TAPCELL_ROW_32_243
*1091 TAP_TAPCELL_ROW_33_244
*1092 TAP_TAPCELL_ROW_33_245
*1093 TAP_TAPCELL_ROW_33_246
*1094 TAP_TAPCELL_ROW_33_247
*1095 TAP_TAPCELL_ROW_34_248
*1096 TAP_TAPCELL_ROW_34_249
*1097 TAP_TAPCELL_ROW_34_250
*1098 TAP_TAPCELL_ROW_34_251
*1099 TAP_TAPCELL_ROW_34_252
*1100 TAP_TAPCELL_ROW_35_253
*1101 TAP_TAPCELL_ROW_35_254
*1102 TAP_TAPCELL_ROW_35_255
*1103 TAP_TAPCELL_ROW_35_256
*1104 TAP_TAPCELL_ROW_36_257
*1105 TAP_TAPCELL_ROW_36_258
*1106 TAP_TAPCELL_ROW_36_259
*1107 TAP_TAPCELL_ROW_36_260
*1108 TAP_TAPCELL_ROW_36_261
*1109 TAP_TAPCELL_ROW_37_262
*1110 TAP_TAPCELL_ROW_37_263
*1111 TAP_TAPCELL_ROW_37_264
*1112 TAP_TAPCELL_ROW_37_265
*1113 TAP_TAPCELL_ROW_38_266
*1114 TAP_TAPCELL_ROW_38_267
*1115 TAP_TAPCELL_ROW_38_268
*1116 TAP_TAPCELL_ROW_38_269
*1117 TAP_TAPCELL_ROW_38_270
*1118 TAP_TAPCELL_ROW_39_271
*1119 TAP_TAPCELL_ROW_39_272
*1120 TAP_TAPCELL_ROW_39_273
*1121 TAP_TAPCELL_ROW_39_274
*1122 TAP_TAPCELL_ROW_3_109
*1123 TAP_TAPCELL_ROW_3_110
*1124 TAP_TAPCELL_ROW_3_111
*1125 TAP_TAPCELL_ROW_3_112
*1126 TAP_TAPCELL_ROW_40_275
*1127 TAP_TAPCELL_ROW_40_276
*1128 TAP_TAPCELL_ROW_40_277
*1129 TAP_TAPCELL_ROW_40_278
*1130 TAP_TAPCELL_ROW_40_279
*1131 TAP_TAPCELL_ROW_41_280
*1132 TAP_TAPCELL_ROW_41_281
*1133 TAP_TAPCELL_ROW_41_282
*1134 TAP_TAPCELL_ROW_41_283
*1135 TAP_TAPCELL_ROW_42_284
*1136 TAP_TAPCELL_ROW_42_285
*1137 TAP_TAPCELL_ROW_42_286
*1138 TAP_TAPCELL_ROW_42_287
*1139 TAP_TAPCELL_ROW_42_288
*1140 TAP_TAPCELL_ROW_43_289
*1141 TAP_TAPCELL_ROW_43_290
*1142 TAP_TAPCELL_ROW_43_291
*1143 TAP_TAPCELL_ROW_43_292
*1144 TAP_TAPCELL_ROW_44_293
*1145 TAP_TAPCELL_ROW_44_294
*1146 TAP_TAPCELL_ROW_44_295
*1147 TAP_TAPCELL_ROW_44_296
*1148 TAP_TAPCELL_ROW_44_297
*1149 TAP_TAPCELL_ROW_44_298
*1150 TAP_TAPCELL_ROW_44_299
*1151 TAP_TAPCELL_ROW_44_300
*1152 TAP_TAPCELL_ROW_44_301
*1153 TAP_TAPCELL_ROW_44_302
*1154 TAP_TAPCELL_ROW_4_113
*1155 TAP_TAPCELL_ROW_4_114
*1156 TAP_TAPCELL_ROW_4_115
*1157 TAP_TAPCELL_ROW_4_116
*1158 TAP_TAPCELL_ROW_4_117
*1159 TAP_TAPCELL_ROW_5_118
*1160 TAP_TAPCELL_ROW_5_119
*1161 TAP_TAPCELL_ROW_5_120
*1162 TAP_TAPCELL_ROW_5_121
*1163 TAP_TAPCELL_ROW_6_122
*1164 TAP_TAPCELL_ROW_6_123
*1165 TAP_TAPCELL_ROW_6_124
*1166 TAP_TAPCELL_ROW_6_125
*1167 TAP_TAPCELL_ROW_6_126
*1168 TAP_TAPCELL_ROW_7_127
*1169 TAP_TAPCELL_ROW_7_128
*1170 TAP_TAPCELL_ROW_7_129
*1171 TAP_TAPCELL_ROW_7_130
*1172 TAP_TAPCELL_ROW_8_131
*1173 TAP_TAPCELL_ROW_8_132
*1174 TAP_TAPCELL_ROW_8_133
*1175 TAP_TAPCELL_ROW_8_134
*1176 TAP_TAPCELL_ROW_8_135
*1177 TAP_TAPCELL_ROW_9_136
*1178 TAP_TAPCELL_ROW_9_137
*1179 TAP_TAPCELL_ROW_9_138
*1180 TAP_TAPCELL_ROW_9_139
*1181 _108_
*1182 _109_
*1183 _110_
*1184 _111_
*1185 _112_
*1186 _113_
*1187 _114_
*1188 _115_
*1189 _116_
*1190 _117_
*1191 _118_
*1192 _119_
*1193 _120_
*1194 _121_
*1195 _122_
*1196 _123_
*1197 _124_
*1198 _125_
*1199 _126_
*1200 _127_
*1201 _128_
*1202 _129_
*1203 _130_
*1204 _131_
*1205 _132_
*1206 _133_
*1207 _134_
*1208 _135_
*1209 _136_
*1210 _137_
*1211 _138_
*1212 _139_
*1213 _140_
*1214 _141_
*1215 _142_
*1216 _143_
*1217 _144_
*1218 _145_
*1219 _146_
*1220 _147_
*1221 _148_
*1222 _149_
*1223 _150_
*1224 _151_
*1225 _152_
*1226 _153_
*1227 _154_
*1228 _155_
*1229 _156_
*1230 _157_
*1231 _158_
*1232 _159_
*1233 _160_
*1234 _161_
*1235 _162_
*1236 _163_
*1237 _164_
*1238 _165_
*1239 _166_
*1240 _167_
*1241 _168_
*1242 _169_
*1243 _170_
*1244 _171_
*1245 _172_
*1246 _173_
*1247 _174_
*1248 _175_
*1249 _176_
*1250 _177_
*1251 _178_
*1252 _179_
*1253 _180_
*1254 _181_
*1255 _182_
*1256 _183_
*1257 _184_
*1258 _185_
*1259 _186_
*1260 _187_
*1261 _188_
*1262 _189_
*1263 _190_
*1264 _191_
*1265 _192_
*1266 _193_
*1267 _194_
*1268 _195_
*1269 _196_
*1270 _197_
*1271 _198_
*1272 _199_
*1273 _200_
*1274 _201_
*1275 _202_
*1276 _203_
*1277 _204_
*1278 _205_
*1279 _206_
*1280 _207_
*1281 _208_
*1282 _209_
*1283 _210_
*1284 _211_
*1285 _212_
*1286 _213_
*1287 _214_
*1288 _215_
*1289 _216_
*1290 _217_
*1291 _218_
*1292 _219_
*1293 _220_
*1294 _221_
*1295 _222_
*1296 _223_
*1297 _224_
*1298 _225_
*1299 _226_
*1300 _227_
*1301 _228_
*1302 _229_
*1303 _230_
*1304 _231_
*1305 _232_
*1306 _233_
*1307 _234_
*1308 _235_
*1309 _236_
*1310 _237_
*1311 _238_
*1312 _239_
*1313 _243_
*1314 _244_
*1315 _245_
*1316 clkbuf_0_clk
*1317 clkbuf_1_0__f_clk
*1318 clkbuf_1_1__f_clk
*1319 ita28_24
*1320 ita28_25
*1321 ita28_26
*1322 output1
*1323 output10
*1324 output11
*1325 output12
*1326 output13
*1327 output14
*1328 output15
*1329 output16
*1330 output17
*1331 output18
*1332 output19
*1333 output2
*1334 output20
*1335 output21
*1336 output22
*1337 output23
*1338 output3
*1339 output4
*1340 output5
*1341 output6
*1342 output7
*1343 output8
*1344 output9

*PORTS
clk I
segm[0] O
segm[10] O
segm[11] O
segm[12] O
segm[13] O
segm[1] O
segm[2] O
segm[3] O
segm[4] O
segm[5] O
segm[6] O
segm[7] O
segm[8] O
segm[9] O
sel[0] O
sel[10] O
sel[11] O
sel[1] O
sel[2] O
sel[3] O
sel[4] O
sel[5] O
sel[6] O
sel[7] O
sel[8] O
sel[9] O

*D_NET *1 0.0160861
*CONN
*P clk I
*I *192:I I *D gf180mcu_fd_sc_mcu7t5v0__antenna
*I *1316:I I *D gf180mcu_fd_sc_mcu7t5v0__clkbuf_16
*CAP
1 clk 0.00346108
2 *192:I 0
3 *1316:I 0.000460019
4 *1:15 0.0039211
5 *1316:I *1204:A2 0.000126457
6 *1316:I *1235:A2 0
7 *1316:I *1251:A1 0.000151417
8 *1316:I *57:19 0.000505523
9 *1316:I *116:10 1.36885e-05
10 *1316:I *119:14 0.000144859
11 *1316:I *121:21 0.000182197
12 *1316:I *132:36 0
13 *1316:I *137:37 0
14 *1316:I *139:172 0.00035741
15 *1:15 *1249:A2 0
16 *1:15 *1251:A1 0.000165941
17 *1:15 *1257:B 0
18 *1:15 *1258:A1 4.91433e-05
19 *1:15 *1300:D 0.00254625
20 *1:15 *1302:D 3.84715e-05
21 *1:15 *1323:I 0.000469185
22 *1:15 *1337:I 0.000106536
23 *1:15 *1342:I 0.00168066
24 *1:15 *121:21 0
25 *1:15 *130:25 0.000916194
26 *1:15 *137:37 1.97308e-05
27 *1:15 *139:99 0.000136569
28 *1:15 *165:19 0.000633641
*RES
1 clk *1:15 49.545 
2 *1:15 *1316:I 18.54 
3 *1:15 *192:I 4.5 
*END

*D_NET *2 0.000785753
*CONN
*P segm[0] O
*I *1322:Z O *D gf180mcu_fd_sc_mcu7t5v0__buf_8
*CAP
1 segm[0] 0.000328677
2 *1322:Z 0.000328677
3 segm[0] segm[6] 5.8918e-05
4 segm[0] sel[9] 6.94814e-05
*RES
1 *1322:Z segm[0] 11.835 
*END

*D_NET *3 0.00185524
*CONN
*P segm[10] O
*I *1333:Z O *D gf180mcu_fd_sc_mcu7t5v0__buf_8
*CAP
1 segm[10] 0.000916069
2 *1333:Z 0.000916069
3 segm[10] *1333:I 2.30981e-05
*RES
1 *1333:Z segm[10] 20.295 
*END

*D_NET *4 0.00186403
*CONN
*P segm[11] O
*I *1338:Z O *D gf180mcu_fd_sc_mcu7t5v0__buf_8
*CAP
1 segm[11] 0.000864092
2 *1338:Z 0.000864092
3 segm[11] segm[5] 0.000135851
*RES
1 *1338:Z segm[11] 20.295 
*END

*D_NET *5 0.0023228
*CONN
*P segm[12] O
*I *1339:Z O *D gf180mcu_fd_sc_mcu7t5v0__buf_8
*CAP
1 segm[12] 0.0011614
2 *1339:Z 0.0011614
3 segm[12] segm[9] 0
*RES
1 *1339:Z segm[12] 21.915 
*END

*D_NET *6 0.000785625
*CONN
*P segm[13] O
*I *1340:Z O *D gf180mcu_fd_sc_mcu7t5v0__buf_8
*CAP
1 segm[13] 0.000328597
2 *1340:Z 0.000328597
3 segm[13] sel[0] 5.89484e-05
4 segm[13] sel[1] 6.94814e-05
*RES
1 *1340:Z segm[13] 11.835 
*END

*D_NET *7 0.00193067
*CONN
*P segm[1] O
*I *1319:ZN O *D gf180mcu_fd_sc_mcu7t5v0__tiel
*CAP
1 segm[1] 0.000965334
2 *1319:ZN 0.000965334
*RES
1 *1319:ZN segm[1] 20.2207 