*SPEF "ieee 1481-1999"
*DESIGN "ita22"
*DATE "11:11:11 Fri 11 11, 1111"
*VENDOR "OpenRCX"
*PROGRAM "Parallel Extraction"
*VERSION "1.0"
*DESIGN_FLOW "NAME_SCOPE LOCAL" "PIN_CAP NONE"
*DIVIDER /
*DELIMITER :
*BUS_DELIMITER []
*T_UNIT 1 NS
*C_UNIT 1 PF
*R_UNIT 1 OHM
*L_UNIT 1 HENRY

*NAME_MAP
*1 clk
*2 segm[0]
*3 segm[10]
*4 segm[11]
*5 segm[12]
*6 segm[13]
*7 segm[1]
*8 segm[2]
*9 segm[3]
*10 segm[4]
*11 segm[5]
*12 segm[6]
*13 segm[7]
*14 segm[8]
*15 segm[9]
*16 sel[0]
*17 sel[10]
*18 sel[11]
*19 sel[1]
*20 sel[2]
*21 sel[3]
*22 sel[4]
*23 sel[5]
*24 sel[6]
*25 sel[7]
*26 sel[8]
*27 sel[9]
*30 _000_
*31 _001_
*32 _002_
*33 _003_
*34 _004_
*35 _005_
*36 _006_
*37 _007_
*38 _008_
*39 _009_
*40 _010_
*41 _011_
*42 _012_
*43 _013_
*44 _014_
*45 _015_
*46 _016_
*47 _017_
*48 _018_
*49 _019_
*50 _020_
*51 _021_
*52 _022_
*53 _023_
*54 _024_
*55 _025_
*56 _026_
*57 _027_
*58 _028_
*59 _029_
*60 _030_
*61 _031_
*62 _032_
*63 _033_
*64 _034_
*65 _035_
*66 _036_
*67 _037_
*68 _038_
*69 _039_
*70 _040_
*71 _041_
*72 _042_
*73 _043_
*74 _044_
*75 _045_
*76 _046_
*77 _047_
*78 _048_
*79 _049_
*80 _050_
*81 _051_
*82 _052_
*83 _053_
*84 _054_
*85 _055_
*86 _056_
*87 _057_
*88 _058_
*89 _059_
*90 _060_
*91 _061_
*92 _062_
*93 _063_
*94 _064_
*95 _065_
*96 _066_
*97 _067_
*98 _068_
*99 _069_
*100 _070_
*101 _071_
*102 _072_
*103 _073_
*104 _074_
*105 _075_
*106 _076_
*107 _077_
*108 _078_
*109 _079_
*110 _080_
*111 _081_
*112 _082_
*113 _083_
*114 _084_
*115 _085_
*116 _086_
*117 _087_
*118 _088_
*119 _089_
*120 _090_
*121 _091_
*122 _092_
*123 _093_
*124 _094_
*125 _095_
*126 _096_
*127 _097_
*128 _098_
*129 _099_
*130 _100_
*131 _101_
*132 _102_
*133 _103_
*134 _104_
*135 _105_
*136 _106_
*137 _107_
*138 _108_
*139 _109_
*140 _110_
*141 _111_
*142 _112_
*143 _113_
*144 _114_
*145 _115_
*146 _116_
*147 _117_
*148 _118_
*149 _119_
*150 _120_
*151 _121_
*152 _122_
*153 _123_
*154 clknet_0_clk
*155 clknet_1_0__leaf_clk
*156 clknet_1_1__leaf_clk
*157 dut22\.count\[0\]
*158 dut22\.count\[1\]
*159 dut22\.count\[2\]
*160 dut22\.count\[3\]
*161 net1
*162 net10
*163 net11
*164 net12
*165 net13
*166 net14
*167 net15
*168 net16
*169 net17
*170 net18
*171 net19
*172 net2
*173 net20
*174 net21
*175 net22
*176 net23
*177 net24
*178 net25
*179 net26
*180 net3
*181 net4
*182 net5
*183 net6
*184 net7
*185 net8
*186 net9
*187 ANTENNA__179__A2
*188 ANTENNA__186__A2
*189 ANTENNA__213__A1
*190 ANTENNA__235__A2
*191 ANTENNA__248__CLK
*192 ANTENNA__249__CLK
*193 ANTENNA__250__CLK
*194 ANTENNA__251__CLK
*195 ANTENNA__252__CLK
*196 ANTENNA__253__CLK
*197 ANTENNA__254__CLK
*198 ANTENNA__255__CLK
*199 ANTENNA__256__CLK
*200 ANTENNA__257__CLK
*201 ANTENNA__258__CLK
*202 ANTENNA__259__CLK
*203 ANTENNA__260__CLK
*204 ANTENNA__261__CLK
*205 ANTENNA__262__CLK
*206 ANTENNA__263__CLK
*207 ANTENNA__264__CLK
*208 ANTENNA__265__CLK
*209 ANTENNA__266__CLK
*210 ANTENNA__267__CLK
*211 ANTENNA__268__CLK
*212 ANTENNA__269__CLK
*213 ANTENNA__270__CLK
*214 ANTENNA__271__CLK
*215 ANTENNA__272__CLK
*216 ANTENNA__273__CLK
*217 ANTENNA__274__CLK
*218 ANTENNA_clkbuf_0_clk_I
*219 FILLER_0_0_104
*220 FILLER_0_0_138
*221 FILLER_0_0_142
*222 FILLER_0_0_172
*223 FILLER_0_0_2
*224 FILLER_0_0_206
*225 FILLER_0_0_210
*226 FILLER_0_0_237
*227 FILLER_0_0_266
*228 FILLER_0_0_270
*229 FILLER_0_0_274
*230 FILLER_0_0_308
*231 FILLER_0_0_342
*232 FILLER_0_0_346
*233 FILLER_0_0_348
*234 FILLER_0_0_36
*235 FILLER_0_0_70
*236 FILLER_0_10_101
*237 FILLER_0_10_107
*238 FILLER_0_10_171
*239 FILLER_0_10_177
*240 FILLER_0_10_2
*241 FILLER_0_10_241
*242 FILLER_0_10_247
*243 FILLER_0_10_311
*244 FILLER_0_10_317
*245 FILLER_0_10_34
*246 FILLER_0_10_37
*247 FILLER_0_11_136
*248 FILLER_0_11_142
*249 FILLER_0_11_2
*250 FILLER_0_11_206
*251 FILLER_0_11_212
*252 FILLER_0_11_216
*253 FILLER_0_11_282
*254 FILLER_0_11_346
*255 FILLER_0_11_348
*256 FILLER_0_11_66
*257 FILLER_0_11_72
*258 FILLER_0_12_101
*259 FILLER_0_12_107
*260 FILLER_0_12_123
*261 FILLER_0_12_131
*262 FILLER_0_12_161
*263 FILLER_0_12_165
*264 FILLER_0_12_173
*265 FILLER_0_12_177
*266 FILLER_0_12_2
*267 FILLER_0_12_220
*268 FILLER_0_12_225
*269 FILLER_0_12_241
*270 FILLER_0_12_247
*271 FILLER_0_12_311
*272 FILLER_0_12_317
*273 FILLER_0_12_34
*274 FILLER_0_12_37
*275 FILLER_0_13_136
*276 FILLER_0_13_142
*277 FILLER_0_13_150
*278 FILLER_0_13_152
*279 FILLER_0_13_155
*280 FILLER_0_13_185
*281 FILLER_0_13_189
*282 FILLER_0_13_193
*283 FILLER_0_13_2
*284 FILLER_0_13_208
*285 FILLER_0_13_241
*286 FILLER_0_13_245
*287 FILLER_0_13_277
*288 FILLER_0_13_279
*289 FILLER_0_13_282
*290 FILLER_0_13_346
*291 FILLER_0_13_348
*292 FILLER_0_13_66
*293 FILLER_0_13_72
*294 FILLER_0_14_101
*295 FILLER_0_14_107
*296 FILLER_0_14_123
*297 FILLER_0_14_153
*298 FILLER_0_14_163
*299 FILLER_0_14_169
*300 FILLER_0_14_173
*301 FILLER_0_14_177
*302 FILLER_0_14_181
*303 FILLER_0_14_191
*304 FILLER_0_14_199
*305 FILLER_0_14_2
*306 FILLER_0_14_212
*307 FILLER_0_14_242
*308 FILLER_0_14_244
*309 FILLER_0_14_247
*310 FILLER_0_14_251
*311 FILLER_0_14_317
*312 FILLER_0_14_34
*313 FILLER_0_14_37
*314 FILLER_0_15_136
*315 FILLER_0_15_163
*316 FILLER_0_15_184
*317 FILLER_0_15_2
*318 FILLER_0_15_200
*319 FILLER_0_15_208
*320 FILLER_0_15_220
*321 FILLER_0_15_230
*322 FILLER_0_15_262
*323 FILLER_0_15_278
*324 FILLER_0_15_282
*325 FILLER_0_15_314
*326 FILLER_0_15_322
*327 FILLER_0_15_66
*328 FILLER_0_15_72
*329 FILLER_0_16_101
*330 FILLER_0_16_136
*331 FILLER_0_16_140
*332 FILLER_0_16_156
*333 FILLER_0_16_158
*334 FILLER_0_16_164
*335 FILLER_0_16_172
*336 FILLER_0_16_174
*337 FILLER_0_16_177
*338 FILLER_0_16_187
*339 FILLER_0_16_2
*340 FILLER_0_16_219
*341 FILLER_0_16_235
*342 FILLER_0_16_243
*343 FILLER_0_16_247
*344 FILLER_0_16_311
*345 FILLER_0_16_317
*346 FILLER_0_16_34
*347 FILLER_0_16_37
*348 FILLER_0_17_135
*349 FILLER_0_17_139
*350 FILLER_0_17_142
*351 FILLER_0_17_146
*352 FILLER_0_17_155
*353 FILLER_0_17_163
*354 FILLER_0_17_192
*355 FILLER_0_17_194
*356 FILLER_0_17_2
*357 FILLER_0_17_201
*358 FILLER_0_17_208
*359 FILLER_0_17_212
*360 FILLER_0_17_220
*361 FILLER_0_17_224
*362 FILLER_0_17_226
*363 FILLER_0_17_256
*364 FILLER_0_17_260
*365 FILLER_0_17_276
*366 FILLER_0_17_282
*367 FILLER_0_17_346
*368 FILLER_0_17_348
*369 FILLER_0_17_66
*370 FILLER_0_17_72
*371 FILLER_0_17_88
*372 FILLER_0_17_92
*373 FILLER_0_18_101
*374 FILLER_0_18_107
*375 FILLER_0_18_115
*376 FILLER_0_18_122
*377 FILLER_0_18_126
*378 FILLER_0_18_133
*379 FILLER_0_18_135
*380 FILLER_0_18_148
*381 FILLER_0_18_156
*382 FILLER_0_18_172
*383 FILLER_0_18_174
*384 FILLER_0_18_195
*385 FILLER_0_18_199
*386 FILLER_0_18_2
*387 FILLER_0_18_201
*388 FILLER_0_18_244
*389 FILLER_0_18_247
*390 FILLER_0_18_311
*391 FILLER_0_18_317
*392 FILLER_0_18_321
*393 FILLER_0_18_34
*394 FILLER_0_18_37
*395 FILLER_0_19_104
*396 FILLER_0_19_120
*397 FILLER_0_19_122
*398 FILLER_0_19_128
*399 FILLER_0_19_134
*400 FILLER_0_19_138
*401 FILLER_0_19_194
*402 FILLER_0_19_2
*403 FILLER_0_19_203
*404 FILLER_0_19_207
*405 FILLER_0_19_209
*406 FILLER_0_19_221
*407 FILLER_0_19_234
*408 FILLER_0_19_238
*409 FILLER_0_19_270
*410 FILLER_0_19_278
*411 FILLER_0_19_282
*412 FILLER_0_19_346
*413 FILLER_0_19_348
*414 FILLER_0_19_66
*415 FILLER_0_19_72
*416 FILLER_0_1_136
*417 FILLER_0_1_142
*418 FILLER_0_1_150
*419 FILLER_0_1_154
*420 FILLER_0_1_156
*421 FILLER_0_1_183
*422 FILLER_0_1_199
*423 FILLER_0_1_2
*424 FILLER_0_1_207
*425 FILLER_0_1_209
*426 FILLER_0_1_212
*427 FILLER_0_1_216
*428 FILLER_0_1_243
*429 FILLER_0_1_275
*430 FILLER_0_1_279
*431 FILLER_0_1_282
*432 FILLER_0_1_346
*433 FILLER_0_1_348
*434 FILLER_0_1_66
*435 FILLER_0_1_72
*436 FILLER_0_20_111
*437 FILLER_0_20_115
*438 FILLER_0_20_123
*439 FILLER_0_20_127
*440 FILLER_0_20_129
*441 FILLER_0_20_139
*442 FILLER_0_20_195
*443 FILLER_0_20_2
*444 FILLER_0_20_213
*445 FILLER_0_20_227
*446 FILLER_0_20_231
*447 FILLER_0_20_240
*448 FILLER_0_20_242
*449 FILLER_0_20_276
*450 FILLER_0_20_308
*451 FILLER_0_20_312
*452 FILLER_0_20_314
*453 FILLER_0_20_317
*454 FILLER_0_20_34
*455 FILLER_0_20_37
*456 FILLER_0_20_69
*457 FILLER_0_20_85
*458 FILLER_0_20_93
*459 FILLER_0_20_97
*460 FILLER_0_21_112
*461 FILLER_0_21_120
*462 FILLER_0_21_124
*463 FILLER_0_21_132
*464 FILLER_0_21_134
*465 FILLER_0_21_168
*466 FILLER_0_21_191
*467 FILLER_0_21_205
*468 FILLER_0_21_209
*469 FILLER_0_21_262
*470 FILLER_0_21_278
*471 FILLER_0_21_28
*472 FILLER_0_21_282
*473 FILLER_0_21_314
*474 FILLER_0_21_322
*475 FILLER_0_21_60
*476 FILLER_0_21_68
*477 FILLER_0_21_72
*478 FILLER_0_21_76
*479 FILLER_0_22_126
*480 FILLER_0_22_134
*481 FILLER_0_22_171
*482 FILLER_0_22_233
*483 FILLER_0_22_241
*484 FILLER_0_22_260
*485 FILLER_0_22_28
*486 FILLER_0_22_292
*487 FILLER_0_22_308
*488 FILLER_0_22_312
*489 FILLER_0_22_314
*490 FILLER_0_22_317
*491 FILLER_0_22_32
*492 FILLER_0_22_321
*493 FILLER_0_22_34
*494 FILLER_0_22_37
*495 FILLER_0_22_69
*496 FILLER_0_22_73
*497 FILLER_0_22_75
*498 FILLER_0_23_104
*499 FILLER_0_23_107
*500 FILLER_0_23_123
*501 FILLER_0_23_127
*502 FILLER_0_23_137
*503 FILLER_0_23_139
*504 FILLER_0_23_208
*505 FILLER_0_23_212
*506 FILLER_0_23_250
*507 FILLER_0_23_254
*508 FILLER_0_23_258
*509 FILLER_0_23_274
*510 FILLER_0_23_278
*511 FILLER_0_23_28
*512 FILLER_0_23_282
*513 FILLER_0_23_346
*514 FILLER_0_23_348
*515 FILLER_0_23_60
*516 FILLER_0_23_68
*517 FILLER_0_23_72
*518 FILLER_0_24_101
*519 FILLER_0_24_107
*520 FILLER_0_24_124
*521 FILLER_0_24_128
*522 FILLER_0_24_147
*523 FILLER_0_24_151
*524 FILLER_0_24_153
*525 FILLER_0_24_2
*526 FILLER_0_24_233
*527 FILLER_0_24_235
*528 FILLER_0_24_276
*529 FILLER_0_24_308
*530 FILLER_0_24_312
*531 FILLER_0_24_314
*532 FILLER_0_24_317
*533 FILLER_0_24_321
*534 FILLER_0_24_34
*535 FILLER_0_24_37
*536 FILLER_0_25_104
*537 FILLER_0_25_137
*538 FILLER_0_25_139
*539 FILLER_0_25_148
*540 FILLER_0_25_164
*541 FILLER_0_25_172
*542 FILLER_0_25_212
*543 FILLER_0_25_216
*544 FILLER_0_25_218
*545 FILLER_0_25_261
*546 FILLER_0_25_265
*547 FILLER_0_25_273
*548 FILLER_0_25_277
*549 FILLER_0_25_279
*550 FILLER_0_25_28
*551 FILLER_0_25_282
*552 FILLER_0_25_314
*553 FILLER_0_25_322
*554 FILLER_0_25_60
*555 FILLER_0_25_68
*556 FILLER_0_25_72
*557 FILLER_0_26_111
*558 FILLER_0_26_115
*559 FILLER_0_26_117
*560 FILLER_0_26_133
*561 FILLER_0_26_139
*562 FILLER_0_26_141
*563 FILLER_0_26_147
*564 FILLER_0_26_163
*565 FILLER_0_26_171
*566 FILLER_0_26_177
*567 FILLER_0_26_193
*568 FILLER_0_26_205
*569 FILLER_0_26_217
*570 FILLER_0_26_221
*571 FILLER_0_26_231
*572 FILLER_0_26_244
*573 FILLER_0_26_247
*574 FILLER_0_26_28
*575 FILLER_0_26_311
*576 FILLER_0_26_317
*577 FILLER_0_26_32
*578 FILLER_0_26_34
*579 FILLER_0_26_37
*580 FILLER_0_26_69
*581 FILLER_0_26_73
*582 FILLER_0_26_75
*583 FILLER_0_27_125
*584 FILLER_0_27_131
*585 FILLER_0_27_135
*586 FILLER_0_27_139
*587 FILLER_0_27_142
*588 FILLER_0_27_146
*589 FILLER_0_27_156
*590 FILLER_0_27_160
*591 FILLER_0_27_2
*592 FILLER_0_27_201
*593 FILLER_0_27_209
*594 FILLER_0_27_212
*595 FILLER_0_27_255
*596 FILLER_0_27_259
*597 FILLER_0_27_275
*598 FILLER_0_27_279
*599 FILLER_0_27_282
*600 FILLER_0_27_346
*601 FILLER_0_27_348
*602 FILLER_0_27_66
*603 FILLER_0_27_72
*604 FILLER_0_27_88
*605 FILLER_0_28_101
*606 FILLER_0_28_107
*607 FILLER_0_28_123
*608 FILLER_0_28_131
*609 FILLER_0_28_143
*610 FILLER_0_28_151
*611 FILLER_0_28_159
*612 FILLER_0_28_185
*613 FILLER_0_28_195
*614 FILLER_0_28_205
*615 FILLER_0_28_213
*616 FILLER_0_28_217
*617 FILLER_0_28_227
*618 FILLER_0_28_243
*619 FILLER_0_28_247
*620 FILLER_0_28_28
*621 FILLER_0_28_311
*622 FILLER_0_28_317
*623 FILLER_0_28_32
*624 FILLER_0_28_321
*625 FILLER_0_28_34
*626 FILLER_0_28_37
*627 FILLER_0_29_138
*628 FILLER_0_29_147
*629 FILLER_0_29_151
*630 FILLER_0_29_170
*631 FILLER_0_29_174
*632 FILLER_0_29_190
*633 FILLER_0_29_194
*634 FILLER_0_29_2
*635 FILLER_0_29_204
*636 FILLER_0_29_212
*637 FILLER_0_29_214
*638 FILLER_0_29_244
*639 FILLER_0_29_248
*640 FILLER_0_29_282
*641 FILLER_0_29_346
*642 FILLER_0_29_348
*643 FILLER_0_29_66
*644 FILLER_0_29_72
*645 FILLER_0_2_101
*646 FILLER_0_2_107
*647 FILLER_0_2_171
*648 FILLER_0_2_177
*649 FILLER_0_2_2
*650 FILLER_0_2_241
*651 FILLER_0_2_247
*652 FILLER_0_2_311
*653 FILLER_0_2_317
*654 FILLER_0_2_34
*655 FILLER_0_2_37
*656 FILLER_0_30_101
*657 FILLER_0_30_173
*658 FILLER_0_30_177
*659 FILLER_0_30_185
*660 FILLER_0_30_189
*661 FILLER_0_30_2
*662 FILLER_0_30_220
*663 FILLER_0_30_230
*664 FILLER_0_30_238
*665 FILLER_0_30_242
*666 FILLER_0_30_244
*667 FILLER_0_30_247
*668 FILLER_0_30_311
*669 FILLER_0_30_317
*670 FILLER_0_30_321
*671 FILLER_0_30_34
*672 FILLER_0_30_37
*673 FILLER_0_31_136
*674 FILLER_0_31_171
*675 FILLER_0_31_175
*676 FILLER_0_31_179
*677 FILLER_0_31_181
*678 FILLER_0_31_188
*679 FILLER_0_31_192
*680 FILLER_0_31_199
*681 FILLER_0_31_2
*682 FILLER_0_31_207
*683 FILLER_0_31_209
*684 FILLER_0_31_212
*685 FILLER_0_31_276
*686 FILLER_0_31_282
*687 FILLER_0_31_346
*688 FILLER_0_31_348
*689 FILLER_0_31_66
*690 FILLER_0_31_72
*691 FILLER_0_32_101
*692 FILLER_0_32_107
*693 FILLER_0_32_171
*694 FILLER_0_32_2
*695 FILLER_0_32_206
*696 FILLER_0_32_210
*697 FILLER_0_32_242
*698 FILLER_0_32_244
*699 FILLER_0_32_247
*700 FILLER_0_32_311
*701 FILLER_0_32_317
*702 FILLER_0_32_34
*703 FILLER_0_32_37
*704 FILLER_0_33_136
*705 FILLER_0_33_142
*706 FILLER_0_33_2
*707 FILLER_0_33_206
*708 FILLER_0_33_212
*709 FILLER_0_33_276
*710 FILLER_0_33_282
*711 FILLER_0_33_346
*712 FILLER_0_33_348
*713 FILLER_0_33_66
*714 FILLER_0_33_72
*715 FILLER_0_34_101
*716 FILLER_0_34_107
*717 FILLER_0_34_171
*718 FILLER_0_34_177
*719 FILLER_0_34_2
*720 FILLER_0_34_241
*721 FILLER_0_34_247
*722 FILLER_0_34_311
*723 FILLER_0_34_317
*724 FILLER_0_34_34
*725 FILLER_0_34_37
*726 FILLER_0_35_136
*727 FILLER_0_35_142
*728 FILLER_0_35_2
*729 FILLER_0_35_206
*730 FILLER_0_35_212
*731 FILLER_0_35_276
*732 FILLER_0_35_282
*733 FILLER_0_35_346
*734 FILLER_0_35_348
*735 FILLER_0_35_66
*736 FILLER_0_35_72
*737 FILLER_0_36_101
*738 FILLER_0_36_107
*739 FILLER_0_36_171
*740 FILLER_0_36_177
*741 FILLER_0_36_2
*742 FILLER_0_36_241
*743 FILLER_0_36_247
*744 FILLER_0_36_311
*745 FILLER_0_36_317
*746 FILLER_0_36_34
*747 FILLER_0_36_37
*748 FILLER_0_37_136
*749 FILLER_0_37_142
*750 FILLER_0_37_2
*751 FILLER_0_37_206
*752 FILLER_0_37_212
*753 FILLER_0_37_276
*754 FILLER_0_37_282
*755 FILLER_0_37_346
*756 FILLER_0_37_348
*757 FILLER_0_37_66
*758 FILLER_0_37_72
*759 FILLER_0_38_101
*760 FILLER_0_38_107
*761 FILLER_0_38_171
*762 FILLER_0_38_177
*763 FILLER_0_38_2
*764 FILLER_0_38_241
*765 FILLER_0_38_247
*766 FILLER_0_38_311
*767 FILLER_0_38_317
*768 FILLER_0_38_34
*769 FILLER_0_38_37
*770 FILLER_0_39_136
*771 FILLER_0_39_142
*772 FILLER_0_39_2
*773 FILLER_0_39_206
*774 FILLER_0_39_212
*775 FILLER_0_39_276
*776 FILLER_0_39_282
*777 FILLER_0_39_346
*778 FILLER_0_39_348
*779 FILLER_0_39_66
*780 FILLER_0_39_72
*781 FILLER_0_3_136
*782 FILLER_0_3_142
*783 FILLER_0_3_2
*784 FILLER_0_3_206
*785 FILLER_0_3_212
*786 FILLER_0_3_276
*787 FILLER_0_3_282
*788 FILLER_0_3_346
*789 FILLER_0_3_348
*790 FILLER_0_3_66
*791 FILLER_0_3_72
*792 FILLER_0_40_101
*793 FILLER_0_40_107
*794 FILLER_0_40_171
*795 FILLER_0_40_177
*796 FILLER_0_40_2
*797 FILLER_0_40_241
*798 FILLER_0_40_247
*799 FILLER_0_40_311
*800 FILLER_0_40_317
*801 FILLER_0_40_34
*802 FILLER_0_40_37
*803 FILLER_0_41_136
*804 FILLER_0_41_142
*805 FILLER_0_41_2
*806 FILLER_0_41_206
*807 FILLER_0_41_212
*808 FILLER_0_41_276
*809 FILLER_0_41_282
*810 FILLER_0_41_346
*811 FILLER_0_41_348
*812 FILLER_0_41_66
*813 FILLER_0_41_72
*814 FILLER_0_42_101
*815 FILLER_0_42_107
*816 FILLER_0_42_171
*817 FILLER_0_42_177
*818 FILLER_0_42_193
*819 FILLER_0_42_197
*820 FILLER_0_42_2
*821 FILLER_0_42_225
*822 FILLER_0_42_241
*823 FILLER_0_42_247
*824 FILLER_0_42_311
*825 FILLER_0_42_317
*826 FILLER_0_42_34
*827 FILLER_0_42_37
*828 FILLER_0_43_136
*829 FILLER_0_43_168
*830 FILLER_0_43_195
*831 FILLER_0_43_2
*832 FILLER_0_43_203
*833 FILLER_0_43_207
*834 FILLER_0_43_209
*835 FILLER_0_43_212
*836 FILLER_0_43_216
*837 FILLER_0_43_243
*838 FILLER_0_43_275
*839 FILLER_0_43_279
*840 FILLER_0_43_282
*841 FILLER_0_43_346
*842 FILLER_0_43_348
*843 FILLER_0_43_66
*844 FILLER_0_43_72
*845 FILLER_0_44_104
*846 FILLER_0_44_138
*847 FILLER_0_44_142
*848 FILLER_0_44_172
*849 FILLER_0_44_176
*850 FILLER_0_44_2
*851 FILLER_0_44_232
*852 FILLER_0_44_236
*853 FILLER_0_44_240
*854 FILLER_0_44_274
*855 FILLER_0_44_308
*856 FILLER_0_44_342
*857 FILLER_0_44_346
*858 FILLER_0_44_348
*859 FILLER_0_44_36
*860 FILLER_0_44_70
*861 FILLER_0_4_101
*862 FILLER_0_4_107
*863 FILLER_0_4_171
*864 FILLER_0_4_177
*865 FILLER_0_4_2
*866 FILLER_0_4_241
*867 FILLER_0_4_247
*868 FILLER_0_4_311
*869 FILLER_0_4_317
*870 FILLER_0_4_34
*871 FILLER_0_4_37
*872 FILLER_0_5_136
*873 FILLER_0_5_142
*874 FILLER_0_5_2
*875 FILLER_0_5_206
*876 FILLER_0_5_212
*877 FILLER_0_5_276
*878 FILLER_0_5_282
*879 FILLER_0_5_346
*880 FILLER_0_5_348
*881 FILLER_0_5_66
*882 FILLER_0_5_72
*883 FILLER_0_6_101
*884 FILLER_0_6_107
*885 FILLER_0_6_171
*886 FILLER_0_6_177
*887 FILLER_0_6_2
*888 FILLER_0_6_241
*889 FILLER_0_6_247
*890 FILLER_0_6_311
*891 FILLER_0_6_317
*892 FILLER_0_6_34
*893 FILLER_0_6_37
*894 FILLER_0_7_136
*895 FILLER_0_7_142
*896 FILLER_0_7_2
*897 FILLER_0_7_206
*898 FILLER_0_7_212
*899 FILLER_0_7_276
*900 FILLER_0_7_282
*901 FILLER_0_7_346
*902 FILLER_0_7_348
*903 FILLER_0_7_66
*904 FILLER_0_7_72
*905 FILLER_0_8_101
*906 FILLER_0_8_107
*907 FILLER_0_8_171
*908 FILLER_0_8_177
*909 FILLER_0_8_2
*910 FILLER_0_8_241
*911 FILLER_0_8_247
*912 FILLER_0_8_311
*913 FILLER_0_8_317
*914 FILLER_0_8_34
*915 FILLER_0_8_37
*916 FILLER_0_9_136
*917 FILLER_0_9_142
*918 FILLER_0_9_2
*919 FILLER_0_9_206
*920 FILLER_0_9_212
*921 FILLER_0_9_276
*922 FILLER_0_9_282
*923 FILLER_0_9_346
*924 FILLER_0_9_348
*925 FILLER_0_9_66
*926 FILLER_0_9_72
*927 PHY_EDGE_ROW_0_Left_45
*928 PHY_EDGE_ROW_0_Right_0
*929 PHY_EDGE_ROW_10_Left_55
*930 PHY_EDGE_ROW_10_Right_10
*931 PHY_EDGE_ROW_11_Left_56
*932 PHY_EDGE_ROW_11_Right_11
*933 PHY_EDGE_ROW_12_Left_57
*934 PHY_EDGE_ROW_12_Right_12
*935 PHY_EDGE_ROW_13_Left_58
*936 PHY_EDGE_ROW_13_Right_13
*937 PHY_EDGE_ROW_14_Left_59
*938 PHY_EDGE_ROW_14_Right_14
*939 PHY_EDGE_ROW_15_Left_60
*940 PHY_EDGE_ROW_15_Right_15
*941 PHY_EDGE_ROW_16_Left_61
*942 PHY_EDGE_ROW_16_Right_16
*943 PHY_EDGE_ROW_17_Left_62
*944 PHY_EDGE_ROW_17_Right_17
*945 PHY_EDGE_ROW_18_Left_63
*946 PHY_EDGE_ROW_18_Right_18
*947 PHY_EDGE_ROW_19_Left_64
*948 PHY_EDGE_ROW_19_Right_19
*949 PHY_EDGE_ROW_1_Left_46
*950 PHY_EDGE_ROW_1_Right_1
*951 PHY_EDGE_ROW_20_Left_65
*952 PHY_EDGE_ROW_20_Right_20
*953 PHY_EDGE_ROW_21_Left_66
*954 PHY_EDGE_ROW_21_Right_21
*955 PHY_EDGE_ROW_22_Left_67
*956 PHY_EDGE_ROW_22_Right_22
*957 PHY_EDGE_ROW_23_Left_68
*958 PHY_EDGE_ROW_23_Right_23
*959 PHY_EDGE_ROW_24_Left_69
*960 PHY_EDGE_ROW_24_Right_24
*961 PHY_EDGE_ROW_25_Left_70
*962 PHY_EDGE_ROW_25_Right_25
*963 PHY_EDGE_ROW_26_Left_71
*964 PHY_EDGE_ROW_26_Right_26
*965 PHY_EDGE_ROW_27_Left_72
*966 PHY_EDGE_ROW_27_Right_27
*967 PHY_EDGE_ROW_28_Left_73
*968 PHY_EDGE_ROW_28_Right_28
*969 PHY_EDGE_ROW_29_Left_74
*970 PHY_EDGE_ROW_29_Right_29
*971 PHY_EDGE_ROW_2_Left_47
*972 PHY_EDGE_ROW_2_Right_2
*973 PHY_EDGE_ROW_30_Left_75
*974 PHY_EDGE_ROW_30_Right_30
*975 PHY_EDGE_ROW_31_Left_76
*976 PHY_EDGE_ROW_31_Right_31
*977 PHY_EDGE_ROW_32_Left_77
*978 PHY_EDGE_ROW_32_Right_32
*979 PHY_EDGE_ROW_33_Left_78
*980 PHY_EDGE_ROW_33_Right_33
*981 PHY_EDGE_ROW_34_Left_79
*982 PHY_EDGE_ROW_34_Right_34
*983 PHY_EDGE_ROW_35_Left_80
*984 PHY_EDGE_ROW_35_Right_35
*985 PHY_EDGE_ROW_36_Left_81
*986 PHY_EDGE_ROW_36_Right_36
*987 PHY_EDGE_ROW_37_Left_82
*988 PHY_EDGE_ROW_37_Right_37
*989 PHY_EDGE_ROW_38_Left_83
*990 PHY_EDGE_ROW_38_Right_38
*991 PHY_EDGE_ROW_39_Left_84
*992 PHY_EDGE_ROW_39_Right_39
*993 PHY_EDGE_ROW_3_Left_48
*994 PHY_EDGE_ROW_3_Right_3
*995 PHY_EDGE_ROW_40_Left_85
*996 PHY_EDGE_ROW_40_Right_40
*997 PHY_EDGE_ROW_41_Left_86
*998 PHY_EDGE_ROW_41_Right_41
*999 PHY_EDGE_ROW_42_Left_87
*1000 PHY_EDGE_ROW_42_Right_42
*1001 PHY_EDGE_ROW_43_Left_88
*1002 PHY_EDGE_ROW_43_Right_43
*1003 PHY_EDGE_ROW_44_Left_89
*1004 PHY_EDGE_ROW_44_Right_44
*1005 PHY_EDGE_ROW_4_Left_49
*1006 PHY_EDGE_ROW_4_Right_4
*1007 PHY_EDGE_ROW_5_Left_50
*1008 PHY_EDGE_ROW_5_Right_5
*1009 PHY_EDGE_ROW_6_Left_51
*1010 PHY_EDGE_ROW_6_Right_6
*1011 PHY_EDGE_ROW_7_Left_52
*1012 PHY_EDGE_ROW_7_Right_7
*1013 PHY_EDGE_ROW_8_Left_53
*1014 PHY_EDGE_ROW_8_Right_8
*1015 PHY_EDGE_ROW_9_Left_54
*1016 PHY_EDGE_ROW_9_Right_9
*1017 TAP_TAPCELL_ROW_0_90
*1018 TAP_TAPCELL_ROW_0_91
*1019 TAP_TAPCELL_ROW_0_92
*1020 TAP_TAPCELL_ROW_0_93
*1021 TAP_TAPCELL_ROW_0_94
*1022 TAP_TAPCELL_ROW_0_95
*1023 TAP_TAPCELL_ROW_0_96
*1024 TAP_TAPCELL_ROW_0_97
*1025 TAP_TAPCELL_ROW_0_98
*1026 TAP_TAPCELL_ROW_0_99
*1027 TAP_TAPCELL_ROW_10_140
*1028 TAP_TAPCELL_ROW_10_141
*1029 TAP_TAPCELL_ROW_10_142
*1030 TAP_TAPCELL_ROW_10_143
*1031 TAP_TAPCELL_ROW_10_144
*1032 TAP_TAPCELL_ROW_11_145
*1033 TAP_TAPCELL_ROW_11_146
*1034 TAP_TAPCELL_ROW_11_147
*1035 TAP_TAPCELL_ROW_11_148
*1036 TAP_TAPCELL_ROW_12_149
*1037 TAP_TAPCELL_ROW_12_150
*1038 TAP_TAPCELL_ROW_12_151
*1039 TAP_TAPCELL_ROW_12_152
*1040 TAP_TAPCELL_ROW_12_153
*1041 TAP_TAPCELL_ROW_13_154
*1042 TAP_TAPCELL_ROW_13_155
*1043 TAP_TAPCELL_ROW_13_156
*1044 TAP_TAPCELL_ROW_13_157
*1045 TAP_TAPCELL_ROW_14_158
*1046 TAP_TAPCELL_ROW_14_159
*1047 TAP_TAPCELL_ROW_14_160
*1048 TAP_TAPCELL_ROW_14_161
*1049 TAP_TAPCELL_ROW_14_162
*1050 TAP_TAPCELL_ROW_15_163
*1051 TAP_TAPCELL_ROW_15_164
*1052 TAP_TAPCELL_ROW_15_165
*1053 TAP_TAPCELL_ROW_15_166
*1054 TAP_TAPCELL_ROW_16_167
*1055 TAP_TAPCELL_ROW_16_168
*1056 TAP_TAPCELL_ROW_16_169
*1057 TAP_TAPCELL_ROW_16_170
*1058 TAP_TAPCELL_ROW_16_171
*1059 TAP_TAPCELL_ROW_17_172
*1060 TAP_TAPCELL_ROW_17_173
*1061 TAP_TAPCELL_ROW_17_174
*1062 TAP_TAPCELL_ROW_17_175
*1063 TAP_TAPCELL_ROW_18_176
*1064 TAP_TAPCELL_ROW_18_177
*1065 TAP_TAPCELL_ROW_18_178
*1066 TAP_TAPCELL_ROW_18_179
*1067 TAP_TAPCELL_ROW_18_180
*1068 TAP_TAPCELL_ROW_19_181
*1069 TAP_TAPCELL_ROW_19_182
*1070 TAP_TAPCELL_ROW_19_183
*1071 TAP_TAPCELL_ROW_19_184
*1072 TAP_TAPCELL_ROW_1_100
*1073 TAP_TAPCELL_ROW_1_101
*1074 TAP_TAPCELL_ROW_1_102
*1075 TAP_TAPCELL_ROW_1_103
*1076 TAP_TAPCELL_ROW_20_185
*1077 TAP_TAPCELL_ROW_20_186
*1078 TAP_TAPCELL_ROW_20_187
*1079 TAP_TAPCELL_ROW_20_188
*1080 TAP_TAPCELL_ROW_20_189
*1081 TAP_TAPCELL_ROW_21_190
*1082 TAP_TAPCELL_ROW_21_191
*1083 TAP_TAPCELL_ROW_21_192
*1084 TAP_TAPCELL_ROW_21_193
*1085 TAP_TAPCELL_ROW_22_194
*1086 TAP_TAPCELL_ROW_22_195
*1087 TAP_TAPCELL_ROW_22_196
*1088 TAP_TAPCELL_ROW_22_197
*1089 TAP_TAPCELL_ROW_22_198
*1090 TAP_TAPCELL_ROW_23_199
*1091 TAP_TAPCELL_ROW_23_200
*1092 TAP_TAPCELL_ROW_23_201
*1093 TAP_TAPCELL_ROW_23_202
*1094 TAP_TAPCELL_ROW_24_203
*1095 TAP_TAPCELL_ROW_24_204
*1096 TAP_TAPCELL_ROW_24_205
*1097 TAP_TAPCELL_ROW_24_206
*1098 TAP_TAPCELL_ROW_24_207
*1099 TAP_TAPCELL_ROW_25_208
*1100 TAP_TAPCELL_ROW_25_209
*1101 TAP_TAPCELL_ROW_25_210
*1102 TAP_TAPCELL_ROW_25_211
*1103 TAP_TAPCELL_ROW_26_212
*1104 TAP_TAPCELL_ROW_26_213
*1105 TAP_TAPCELL_ROW_26_214
*1106 TAP_TAPCELL_ROW_26_215
*1107 TAP_TAPCELL_ROW_26_216
*1108 TAP_TAPCELL_ROW_27_217
*1109 TAP_TAPCELL_ROW_27_218
*1110 TAP_TAPCELL_ROW_27_219
*1111 TAP_TAPCELL_ROW_27_220
*1112 TAP_TAPCELL_ROW_28_221
*1113 TAP_TAPCELL_ROW_28_222
*1114 TAP_TAPCELL_ROW_28_223
*1115 TAP_TAPCELL_ROW_28_224
*1116 TAP_TAPCELL_ROW_28_225
*1117 TAP_TAPCELL_ROW_29_226
*1118 TAP_TAPCELL_ROW_29_227
*1119 TAP_TAPCELL_ROW_29_228
*1120 TAP_TAPCELL_ROW_29_229
*1121 TAP_TAPCELL_ROW_2_104
*1122 TAP_TAPCELL_ROW_2_105
*1123 TAP_TAPCELL_ROW_2_106
*1124 TAP_TAPCELL_ROW_2_107
*1125 TAP_TAPCELL_ROW_2_108
*1126 TAP_TAPCELL_ROW_30_230
*1127 TAP_TAPCELL_ROW_30_231
*1128 TAP_TAPCELL_ROW_30_232
*1129 TAP_TAPCELL_ROW_30_233
*1130 TAP_TAPCELL_ROW_30_234
*1131 TAP_TAPCELL_ROW_31_235
*1132 TAP_TAPCELL_ROW_31_236
*1133 TAP_TAPCELL_ROW_31_237
*1134 TAP_TAPCELL_ROW_31_238
*1135 TAP_TAPCELL_ROW_32_239
*1136 TAP_TAPCELL_ROW_32_240
*1137 TAP_TAPCELL_ROW_32_241
*1138 TAP_TAPCELL_ROW_32_242
*1139 TAP_TAPCELL_ROW_32_243
*1140 TAP_TAPCELL_ROW_33_244
*1141 TAP_TAPCELL_ROW_33_245
*1142 TAP_TAPCELL_ROW_33_246
*1143 TAP_TAPCELL_ROW_33_247
*1144 TAP_TAPCELL_ROW_34_248
*1145 TAP_TAPCELL_ROW_34_249
*1146 TAP_TAPCELL_ROW_34_250
*1147 TAP_TAPCELL_ROW_34_251
*1148 TAP_TAPCELL_ROW_34_252
*1149 TAP_TAPCELL_ROW_35_253
*1150 TAP_TAPCELL_ROW_35_254
*1151 TAP_TAPCELL_ROW_35_255
*1152 TAP_TAPCELL_ROW_35_256
*1153 TAP_TAPCELL_ROW_36_257
*1154 TAP_TAPCELL_ROW_36_258
*1155 TAP_TAPCELL_ROW_36_259
*1156 TAP_TAPCELL_ROW_36_260
*1157 TAP_TAPCELL_ROW_36_261
*1158 TAP_TAPCELL_ROW_37_262
*1159 TAP_TAPCELL_ROW_37_263
*1160 TAP_TAPCELL_ROW_37_264
*1161 TAP_TAPCELL_ROW_37_265
*1162 TAP_TAPCELL_ROW_38_266
*1163 TAP_TAPCELL_ROW_38_267
*1164 TAP_TAPCELL_ROW_38_268
*1165 TAP_TAPCELL_ROW_38_269
*1166 TAP_TAPCELL_ROW_38_270
*1167 TAP_TAPCELL_ROW_39_271
*1168 TAP_TAPCELL_ROW_39_272
*1169 TAP_TAPCELL_ROW_39_273
*1170 TAP_TAPCELL_ROW_39_274
*1171 TAP_TAPCELL_ROW_3_109
*1172 TAP_TAPCELL_ROW_3_110
*1173 TAP_TAPCELL_ROW_3_111
*1174 TAP_TAPCELL_ROW_3_112
*1175 TAP_TAPCELL_ROW_40_275
*1176 TAP_TAPCELL_ROW_40_276
*1177 TAP_TAPCELL_ROW_40_277
*1178 TAP_TAPCELL_ROW_40_278
*1179 TAP_TAPCELL_ROW_40_279
*1180 TAP_TAPCELL_ROW_41_280
*1181 TAP_TAPCELL_ROW_41_281
*1182 TAP_TAPCELL_ROW_41_282
*1183 TAP_TAPCELL_ROW_41_283
*1184 TAP_TAPCELL_ROW_42_284
*1185 TAP_TAPCELL_ROW_42_285
*1186 TAP_TAPCELL_ROW_42_286
*1187 TAP_TAPCELL_ROW_42_287
*1188 TAP_TAPCELL_ROW_42_288
*1189 TAP_TAPCELL_ROW_43_289
*1190 TAP_TAPCELL_ROW_43_290
*1191 TAP_TAPCELL_ROW_43_291
*1192 TAP_TAPCELL_ROW_43_292
*1193 TAP_TAPCELL_ROW_44_293
*1194 TAP_TAPCELL_ROW_44_294
*1195 TAP_TAPCELL_ROW_44_295
*1196 TAP_TAPCELL_ROW_44_296
*1197 TAP_TAPCELL_ROW_44_297
*1198 TAP_TAPCELL_ROW_44_298
*1199 TAP_TAPCELL_ROW_44_299
*1200 TAP_TAPCELL_ROW_44_300
*1201 TAP_TAPCELL_ROW_44_301
*1202 TAP_TAPCELL_ROW_44_302
*1203 TAP_TAPCELL_ROW_4_113
*1204 TAP_TAPCELL_ROW_4_114
*1205 TAP_TAPCELL_ROW_4_115
*1206 TAP_TAPCELL_ROW_4_116
*1207 TAP_TAPCELL_ROW_4_117
*1208 TAP_TAPCELL_ROW_5_118
*1209 TAP_TAPCELL_ROW_5_119
*1210 TAP_TAPCELL_ROW_5_120
*1211 TAP_TAPCELL_ROW_5_121
*1212 TAP_TAPCELL_ROW_6_122
*1213 TAP_TAPCELL_ROW_6_123
*1214 TAP_TAPCELL_ROW_6_124
*1215 TAP_TAPCELL_ROW_6_125
*1216 TAP_TAPCELL_ROW_6_126
*1217 TAP_TAPCELL_ROW_7_127
*1218 TAP_TAPCELL_ROW_7_128
*1219 TAP_TAPCELL_ROW_7_129
*1220 TAP_TAPCELL_ROW_7_130
*1221 TAP_TAPCELL_ROW_8_131
*1222 TAP_TAPCELL_ROW_8_132
*1223 TAP_TAPCELL_ROW_8_133
*1224 TAP_TAPCELL_ROW_8_134
*1225 TAP_TAPCELL_ROW_8_135
*1226 TAP_TAPCELL_ROW_9_136
*1227 TAP_TAPCELL_ROW_9_137
*1228 TAP_TAPCELL_ROW_9_138
*1229 TAP_TAPCELL_ROW_9_139
*1230 _124_
*1231 _125_
*1232 _126_
*1233 _127_
*1234 _128_
*1235 _129_
*1236 _130_
*1237 _131_
*1238 _132_
*1239 _133_
*1240 _134_
*1241 _135_
*1242 _136_
*1243 _137_
*1244 _138_
*1245 _139_
*1246 _140_
*1247 _141_
*1248 _142_
*1249 _143_
*1250 _144_
*1251 _145_
*1252 _146_
*1253 _147_
*1254 _148_
*1255 _149_
*1256 _150_
*1257 _151_
*1258 _152_
*1259 _153_
*1260 _154_
*1261 _155_
*1262 _156_
*1263 _157_
*1264 _158_
*1265 _159_
*1266 _160_
*1267 _161_
*1268 _162_
*1269 _163_
*1270 _164_
*1271 _165_
*1272 _166_
*1273 _167_
*1274 _168_
*1275 _169_
*1276 _170_
*1277 _171_
*1278 _172_
*1279 _173_
*1280 _174_
*1281 _175_
*1282 _176_
*1283 _177_
*1284 _178_
*1285 _179_
*1286 _180_
*1287 _181_
*1288 _182_
*1289 _183_
*1290 _184_
*1291 _185_
*1292 _186_
*1293 _187_
*1294 _188_
*1295 _189_
*1296 _190_
*1297 _191_
*1298 _192_
*1299 _193_
*1300 _194_
*1301 _195_
*1302 _196_
*1303 _197_
*1304 _198_
*1305 _199_
*1306 _200_
*1307 _201_
*1308 _202_
*1309 _203_
*1310 _204_
*1311 _205_
*1312 _206_
*1313 _207_
*1314 _208_
*1315 _209_
*1316 _210_
*1317 _211_
*1318 _212_
*1319 _213_
*1320 _214_
*1321 _215_
*1322 _216_
*1323 _217_
*1324 _218_
*1325 _219_
*1326 _220_
*1327 _221_
*1328 _222_
*1329 _223_
*1330 _224_
*1331 _225_
*1332 _226_
*1333 _227_
*1334 _228_
*1335 _229_
*1336 _230_
*1337 _231_
*1338 _232_
*1339 _233_
*1340 _234_
*1341 _235_
*1342 _236_
*1343 _237_
*1344 _238_
*1345 _239_
*1346 _240_
*1347 _241_
*1348 _242_
*1349 _243_
*1350 _244_
*1351 _245_
*1352 _246_
*1353 _247_
*1354 _248_
*1355 _249_
*1356 _250_
*1357 _251_
*1358 _252_
*1359 _253_
*1360 _254_
*1361 _255_
*1362 _256_
*1363 _257_
*1364 _258_
*1365 _259_
*1366 _260_
*1367 _261_
*1368 _262_
*1369 _263_
*1370 _264_
*1371 _265_
*1372 _266_
*1373 _267_
*1374 _268_
*1375 _269_
*1376 _270_
*1377 _271_
*1378 _272_
*1379 _273_
*1380 _274_
*1381 _275_
*1382 _276_
*1383 _277_
*1384 clkbuf_0_clk
*1385 clkbuf_1_0__f_clk
*1386 clkbuf_1_1__f_clk
*1387 output1
*1388 output10
*1389 output11
*1390 output12
*1391 output13
*1392 output14
*1393 output15
*1394 output16
*1395 output17
*1396 output18
*1397 output19
*1398 output2
*1399 output20
*1400 output21
*1401 output22
*1402 output23
*1403 output24
*1404 output25
*1405 output26
*1406 output3
*1407 output4
*1408 output5
*1409 output6
*1410 output7
*1411 output8
*1412 output9

*PORTS
clk I
segm[0] O
segm[10] O
segm[11] O
segm[12] O
segm[13] O
segm[1] O
segm[2] O
segm[3] O
segm[4] O
segm[5] O
segm[6] O
segm[7] O
segm[8] O
segm[9] O
sel[0] O
sel[10] O
sel[11] O
sel[1] O
sel[2] O
sel[3] O
sel[4] O
sel[5] O
sel[6] O
sel[7] O
sel[8] O
sel[9] O

*D_NET *1 0.016477
*CONN
*P clk I
*I *1384:I I *D gf180mcu_fd_sc_mcu7t5v0__clkbuf_16
*I *218:I I *D gf180mcu_fd_sc_mcu7t5v0__antenna
*CAP
1 clk 0.00384457
2 *1384:I 5.28414e-05
3 *218:I 0
4 *1:13 0.00389741
5 *1384:I *1290:A1 0.000102094
6 *1384:I *57:14 0.000140167
7 *1384:I *67:36 0.000158878
8 *1384:I *98:14 5.97012e-05
9 *1:13 *1260:A1 2.62889e-05
10 *1:13 *1260:A2 0.000132363
11 *1:13 *1267:A1 0.000246194
12 *1:13 *1271:B 0
13 *1:13 *1275:A1 0.000162235
14 *1:13 *1280:I 0.000396904
15 *1:13 *1281:A1 0.000129945
16 *1:13 *1281:B2 0.00257225
17 *1:13 *1290:A1 0.00017739
18 *1:13 *1303:A2 0.000191531
19 *1:13 *1305:A4 0.000102094
20 *1:13 *1356:D 0.000387775
21 *1:13 *1409:I 0.00158364
22 *1:13 *1412:I 0.000650048
23 *1:13 *67:36 0.00026409
24 *1:13 *138:21 0.000128819
25 *1:13 *149:12 6.0962e-05
26 *1:13 *150:14 0
27 *1:13 *153:27 0.000770948
28 *1:13 *186:23 0.00023784
*RES
1 clk *1:13 47.038 
2 *1:13 *218:I 9 
3 *1:13 *1384:I 10.216 
*END

*D_NET *2 0.00129642
*CONN
*P segm[0] O
*I *1387:Z O *D gf180mcu_fd_sc_mcu7t5v0__buf_8
*CAP