*SPEF "ieee 1481-1999"
*DESIGN "ita29"
*DATE "11:11:11 Fri 11 11, 1111"
*VENDOR "OpenRCX"
*PROGRAM "Parallel Extraction"
*VERSION "1.0"
*DESIGN_FLOW "NAME_SCOPE LOCAL" "PIN_CAP NONE"
*DIVIDER /
*DELIMITER :
*BUS_DELIMITER []
*T_UNIT 1 NS
*C_UNIT 1 PF
*R_UNIT 1 OHM
*L_UNIT 1 HENRY

*NAME_MAP
*1 clk
*2 net27
*3 segm[10]
*4 segm[11]
*5 segm[12]
*6 segm[13]
*7 segm[1]
*8 segm[2]
*9 segm[3]
*10 segm[4]
*11 segm[5]
*12 segm[6]
*13 segm[7]
*14 segm[8]
*15 segm[9]
*16 sel[0]
*17 sel[10]
*18 sel[11]
*19 sel[1]
*20 sel[2]
*21 sel[3]
*22 sel[4]
*23 sel[5]
*24 sel[6]
*25 sel[7]
*26 sel[8]
*27 sel[9]
*30 _000_
*31 _001_
*32 _002_
*33 _003_
*34 _004_
*35 _005_
*36 _006_
*37 _007_
*38 _008_
*39 _009_
*40 _010_
*41 _011_
*42 _012_
*43 _013_
*44 _014_
*45 _015_
*46 _016_
*47 _017_
*48 _018_
*49 _019_
*50 _020_
*51 _021_
*52 _022_
*53 _023_
*54 _024_
*55 _025_
*56 _026_
*57 _027_
*58 _028_
*59 _029_
*60 _030_
*61 _031_
*62 _032_
*63 _033_
*64 _034_
*65 _035_
*66 _036_
*67 _037_
*68 _038_
*69 _039_
*70 _040_
*71 _041_
*72 _042_
*73 _043_
*74 _044_
*75 _045_
*76 _046_
*77 _047_
*78 _048_
*79 _049_
*80 _050_
*81 _051_
*82 _052_
*83 _053_
*84 _054_
*85 _055_
*86 _056_
*87 _057_
*88 _058_
*89 _059_
*90 _060_
*91 _061_
*92 _062_
*93 _063_
*94 _064_
*95 _065_
*96 _066_
*97 clknet_0_clk
*98 clknet_1_0__leaf_clk
*99 clknet_1_1__leaf_clk
*100 dut29\.count\[0\]
*101 dut29\.count\[1\]
*102 dut29\.count\[2\]
*103 dut29\.count\[3\]
*104 net1
*105 net10
*106 net11
*107 net12
*108 net13
*109 net14
*110 net15
*111 net16
*112 net17
*113 net18
*114 net19
*115 net2
*116 net20
*117 net21
*118 net22
*119 net23
*120 net24
*121 net25
*122 net26
*123 net3
*124 net4
*125 net5
*126 net6
*127 net7
*128 net8
*129 net9
*130 ANTENNA_clkbuf_0_clk_I
*131 FILLER_0_0_104
*132 FILLER_0_0_138
*133 FILLER_0_0_142
*134 FILLER_0_0_172
*135 FILLER_0_0_174
*136 FILLER_0_0_2
*137 FILLER_0_0_201
*138 FILLER_0_0_203
*139 FILLER_0_0_232
*140 FILLER_0_0_236
*141 FILLER_0_0_240
*142 FILLER_0_0_274
*143 FILLER_0_0_308
*144 FILLER_0_0_342
*145 FILLER_0_0_346
*146 FILLER_0_0_348
*147 FILLER_0_0_36
*148 FILLER_0_0_70
*149 FILLER_0_10_101
*150 FILLER_0_10_107
*151 FILLER_0_10_171
*152 FILLER_0_10_177
*153 FILLER_0_10_2
*154 FILLER_0_10_241
*155 FILLER_0_10_247
*156 FILLER_0_10_311
*157 FILLER_0_10_317
*158 FILLER_0_10_34
*159 FILLER_0_10_37
*160 FILLER_0_11_136
*161 FILLER_0_11_142
*162 FILLER_0_11_2
*163 FILLER_0_11_206
*164 FILLER_0_11_212
*165 FILLER_0_11_276
*166 FILLER_0_11_282
*167 FILLER_0_11_346
*168 FILLER_0_11_348
*169 FILLER_0_11_66
*170 FILLER_0_11_72
*171 FILLER_0_12_101
*172 FILLER_0_12_107
*173 FILLER_0_12_171
*174 FILLER_0_12_177
*175 FILLER_0_12_2
*176 FILLER_0_12_241
*177 FILLER_0_12_247
*178 FILLER_0_12_311
*179 FILLER_0_12_317
*180 FILLER_0_12_34
*181 FILLER_0_12_37
*182 FILLER_0_13_136
*183 FILLER_0_13_142
*184 FILLER_0_13_2
*185 FILLER_0_13_206
*186 FILLER_0_13_212
*187 FILLER_0_13_276
*188 FILLER_0_13_282
*189 FILLER_0_13_346
*190 FILLER_0_13_348
*191 FILLER_0_13_66
*192 FILLER_0_13_72
*193 FILLER_0_14_101
*194 FILLER_0_14_107
*195 FILLER_0_14_171
*196 FILLER_0_14_177
*197 FILLER_0_14_2
*198 FILLER_0_14_241
*199 FILLER_0_14_247
*200 FILLER_0_14_311
*201 FILLER_0_14_317
*202 FILLER_0_14_34
*203 FILLER_0_14_37
*204 FILLER_0_15_136
*205 FILLER_0_15_142
*206 FILLER_0_15_150
*207 FILLER_0_15_154
*208 FILLER_0_15_184
*209 FILLER_0_15_192
*210 FILLER_0_15_2
*211 FILLER_0_15_202
*212 FILLER_0_15_212
*213 FILLER_0_15_276
*214 FILLER_0_15_282
*215 FILLER_0_15_314
*216 FILLER_0_15_322
*217 FILLER_0_15_66
*218 FILLER_0_15_72
*219 FILLER_0_16_101
*220 FILLER_0_16_107
*221 FILLER_0_16_169
*222 FILLER_0_16_173
*223 FILLER_0_16_177
*224 FILLER_0_16_2
*225 FILLER_0_16_208
*226 FILLER_0_16_240
*227 FILLER_0_16_244
*228 FILLER_0_16_247
*229 FILLER_0_16_311
*230 FILLER_0_16_317
*231 FILLER_0_16_321
*232 FILLER_0_16_34
*233 FILLER_0_16_37
*234 FILLER_0_17_128
*235 FILLER_0_17_132
*236 FILLER_0_17_134
*237 FILLER_0_17_142
*238 FILLER_0_17_169
*239 FILLER_0_17_177
*240 FILLER_0_17_181
*241 FILLER_0_17_196
*242 FILLER_0_17_2
*243 FILLER_0_17_204
*244 FILLER_0_17_208
*245 FILLER_0_17_212
*246 FILLER_0_17_276
*247 FILLER_0_17_282
*248 FILLER_0_17_314
*249 FILLER_0_17_322
*250 FILLER_0_17_66
*251 FILLER_0_17_72
*252 FILLER_0_17_88
*253 FILLER_0_17_92
*254 FILLER_0_18_101
*255 FILLER_0_18_107
*256 FILLER_0_18_117
*257 FILLER_0_18_124
*258 FILLER_0_18_140
*259 FILLER_0_18_149
*260 FILLER_0_18_151
*261 FILLER_0_18_183
*262 FILLER_0_18_191
*263 FILLER_0_18_195
*264 FILLER_0_18_197
*265 FILLER_0_18_229
*266 FILLER_0_18_237
*267 FILLER_0_18_242
*268 FILLER_0_18_244
*269 FILLER_0_18_253
*270 FILLER_0_18_28
*271 FILLER_0_18_285
*272 FILLER_0_18_301
*273 FILLER_0_18_309
*274 FILLER_0_18_313
*275 FILLER_0_18_317
*276 FILLER_0_18_32
*277 FILLER_0_18_321
*278 FILLER_0_18_34
*279 FILLER_0_18_37
*280 FILLER_0_19_132
*281 FILLER_0_19_142
*282 FILLER_0_19_146
*283 FILLER_0_19_154
*284 FILLER_0_19_156
*285 FILLER_0_19_200
*286 FILLER_0_19_208
*287 FILLER_0_19_212
*288 FILLER_0_19_216
*289 FILLER_0_19_264
*290 FILLER_0_19_28
*291 FILLER_0_19_282
*292 FILLER_0_19_314
*293 FILLER_0_19_322
*294 FILLER_0_19_60
*295 FILLER_0_19_68
*296 FILLER_0_19_72
*297 FILLER_0_19_88
*298 FILLER_0_1_136
*299 FILLER_0_1_142
*300 FILLER_0_1_2
*301 FILLER_0_1_206
*302 FILLER_0_1_212
*303 FILLER_0_1_276
*304 FILLER_0_1_282
*305 FILLER_0_1_346
*306 FILLER_0_1_348
*307 FILLER_0_1_66
*308 FILLER_0_1_72
*309 FILLER_0_20_101
*310 FILLER_0_20_107
*311 FILLER_0_20_140
*312 FILLER_0_20_148
*313 FILLER_0_20_152
*314 FILLER_0_20_173
*315 FILLER_0_20_177
*316 FILLER_0_20_179
*317 FILLER_0_20_194
*318 FILLER_0_20_198
*319 FILLER_0_20_2
*320 FILLER_0_20_216
*321 FILLER_0_20_223
*322 FILLER_0_20_227
*323 FILLER_0_20_236
*324 FILLER_0_20_244
*325 FILLER_0_20_253
*326 FILLER_0_20_285
*327 FILLER_0_20_301
*328 FILLER_0_20_309
*329 FILLER_0_20_313
*330 FILLER_0_20_317
*331 FILLER_0_20_321
*332 FILLER_0_20_34
*333 FILLER_0_20_37
*334 FILLER_0_21_104
*335 FILLER_0_21_106
*336 FILLER_0_21_136
*337 FILLER_0_21_142
*338 FILLER_0_21_144
*339 FILLER_0_21_2
*340 FILLER_0_21_218
*341 FILLER_0_21_222
*342 FILLER_0_21_231
*343 FILLER_0_21_238
*344 FILLER_0_21_270
*345 FILLER_0_21_278
*346 FILLER_0_21_282
*347 FILLER_0_21_314
*348 FILLER_0_21_322
*349 FILLER_0_21_66
*350 FILLER_0_21_72
*351 FILLER_0_22_101
*352 FILLER_0_22_107
*353 FILLER_0_22_123
*354 FILLER_0_22_181
*355 FILLER_0_22_183
*356 FILLER_0_22_193
*357 FILLER_0_22_2
*358 FILLER_0_22_247
*359 FILLER_0_22_311
*360 FILLER_0_22_317
*361 FILLER_0_22_321
*362 FILLER_0_22_34
*363 FILLER_0_22_37
*364 FILLER_0_23_117
*365 FILLER_0_23_119
*366 FILLER_0_23_128
*367 FILLER_0_23_136
*368 FILLER_0_23_154
*369 FILLER_0_23_158
*370 FILLER_0_23_2
*371 FILLER_0_23_212
*372 FILLER_0_23_220
*373 FILLER_0_23_256
*374 FILLER_0_23_272
*375 FILLER_0_23_282
*376 FILLER_0_23_314
*377 FILLER_0_23_322
*378 FILLER_0_23_66
*379 FILLER_0_23_72
*380 FILLER_0_24_101
*381 FILLER_0_24_107
*382 FILLER_0_24_125
*383 FILLER_0_24_141
*384 FILLER_0_24_149
*385 FILLER_0_24_153
*386 FILLER_0_24_168
*387 FILLER_0_24_172
*388 FILLER_0_24_174
*389 FILLER_0_24_187
*390 FILLER_0_24_191
*391 FILLER_0_24_203
*392 FILLER_0_24_211
*393 FILLER_0_24_215
*394 FILLER_0_24_247
*395 FILLER_0_24_28
*396 FILLER_0_24_311
*397 FILLER_0_24_317
*398 FILLER_0_24_32
*399 FILLER_0_24_321
*400 FILLER_0_24_34
*401 FILLER_0_24_37
*402 FILLER_0_25_104
*403 FILLER_0_25_112
*404 FILLER_0_25_114
*405 FILLER_0_25_129
*406 FILLER_0_25_137
*407 FILLER_0_25_139
*408 FILLER_0_25_142
*409 FILLER_0_25_150
*410 FILLER_0_25_152
*411 FILLER_0_25_181
*412 FILLER_0_25_197
*413 FILLER_0_25_205
*414 FILLER_0_25_209
*415 FILLER_0_25_212
*416 FILLER_0_25_220
*417 FILLER_0_25_224
*418 FILLER_0_25_231
*419 FILLER_0_25_237
*420 FILLER_0_25_269
*421 FILLER_0_25_277
*422 FILLER_0_25_279
*423 FILLER_0_25_28
*424 FILLER_0_25_282
*425 FILLER_0_25_314
*426 FILLER_0_25_322
*427 FILLER_0_25_60
*428 FILLER_0_25_68
*429 FILLER_0_25_72
*430 FILLER_0_26_101
*431 FILLER_0_26_107
*432 FILLER_0_26_115
*433 FILLER_0_26_132
*434 FILLER_0_26_140
*435 FILLER_0_26_156
*436 FILLER_0_26_160
*437 FILLER_0_26_177
*438 FILLER_0_26_185
*439 FILLER_0_26_2
*440 FILLER_0_26_223
*441 FILLER_0_26_239
*442 FILLER_0_26_243
*443 FILLER_0_26_247
*444 FILLER_0_26_311
*445 FILLER_0_26_317
*446 FILLER_0_26_34
*447 FILLER_0_26_37
*448 FILLER_0_27_179
*449 FILLER_0_27_183
*450 FILLER_0_27_206
*451 FILLER_0_27_212
*452 FILLER_0_27_276
*453 FILLER_0_27_28
*454 FILLER_0_27_282
*455 FILLER_0_27_314
*456 FILLER_0_27_322
*457 FILLER_0_27_60
*458 FILLER_0_27_68
*459 FILLER_0_27_72
*460 FILLER_0_27_88
*461 FILLER_0_27_96
*462 FILLER_0_28_101
*463 FILLER_0_28_136
*464 FILLER_0_28_140
*465 FILLER_0_28_170
*466 FILLER_0_28_174
*467 FILLER_0_28_177
*468 FILLER_0_28_181
*469 FILLER_0_28_219
*470 FILLER_0_28_235
*471 FILLER_0_28_243
*472 FILLER_0_28_247
*473 FILLER_0_28_28
*474 FILLER_0_28_311
*475 FILLER_0_28_317
*476 FILLER_0_28_32
*477 FILLER_0_28_34
*478 FILLER_0_28_37
*479 FILLER_0_29_104
*480 FILLER_0_29_120
*481 FILLER_0_29_126
*482 FILLER_0_29_134
*483 FILLER_0_29_138
*484 FILLER_0_29_142
*485 FILLER_0_29_174
*486 FILLER_0_29_190
*487 FILLER_0_29_198
*488 FILLER_0_29_2
*489 FILLER_0_29_208
*490 FILLER_0_29_212
*491 FILLER_0_29_276
*492 FILLER_0_29_282
*493 FILLER_0_29_346
*494 FILLER_0_29_348
*495 FILLER_0_29_66
*496 FILLER_0_29_72
*497 FILLER_0_2_101
*498 FILLER_0_2_107
*499 FILLER_0_2_171
*500 FILLER_0_2_177
*501 FILLER_0_2_193
*502 FILLER_0_2_197
*503 FILLER_0_2_2
*504 FILLER_0_2_225
*505 FILLER_0_2_241
*506 FILLER_0_2_247
*507 FILLER_0_2_311
*508 FILLER_0_2_317
*509 FILLER_0_2_34
*510 FILLER_0_2_37
*511 FILLER_0_30_101
*512 FILLER_0_30_107
*513 FILLER_0_30_171
*514 FILLER_0_30_177
*515 FILLER_0_30_2
*516 FILLER_0_30_241
*517 FILLER_0_30_247
*518 FILLER_0_30_311
*519 FILLER_0_30_317
*520 FILLER_0_30_34
*521 FILLER_0_30_37
*522 FILLER_0_31_136
*523 FILLER_0_31_142
*524 FILLER_0_31_2
*525 FILLER_0_31_206
*526 FILLER_0_31_212
*527 FILLER_0_31_276
*528 FILLER_0_31_282
*529 FILLER_0_31_346
*530 FILLER_0_31_348
*531 FILLER_0_31_66
*532 FILLER_0_31_72
*533 FILLER_0_32_101
*534 FILLER_0_32_107
*535 FILLER_0_32_171
*536 FILLER_0_32_177
*537 FILLER_0_32_2
*538 FILLER_0_32_241
*539 FILLER_0_32_247
*540 FILLER_0_32_311
*541 FILLER_0_32_317
*542 FILLER_0_32_34
*543 FILLER_0_32_37
*544 FILLER_0_33_136
*545 FILLER_0_33_142
*546 FILLER_0_33_2
*547 FILLER_0_33_206
*548 FILLER_0_33_212
*549 FILLER_0_33_276
*550 FILLER_0_33_282
*551 FILLER_0_33_346
*552 FILLER_0_33_348
*553 FILLER_0_33_66
*554 FILLER_0_33_72
*555 FILLER_0_34_101
*556 FILLER_0_34_107
*557 FILLER_0_34_171
*558 FILLER_0_34_177
*559 FILLER_0_34_2
*560 FILLER_0_34_241
*561 FILLER_0_34_247
*562 FILLER_0_34_311
*563 FILLER_0_34_317
*564 FILLER_0_34_34
*565 FILLER_0_34_37
*566 FILLER_0_35_136
*567 FILLER_0_35_142
*568 FILLER_0_35_2
*569 FILLER_0_35_206
*570 FILLER_0_35_212
*571 FILLER_0_35_276
*572 FILLER_0_35_282
*573 FILLER_0_35_346
*574 FILLER_0_35_348
*575 FILLER_0_35_66
*576 FILLER_0_35_72
*577 FILLER_0_36_101
*578 FILLER_0_36_107
*579 FILLER_0_36_171
*580 FILLER_0_36_177
*581 FILLER_0_36_2
*582 FILLER_0_36_241
*583 FILLER_0_36_247
*584 FILLER_0_36_311
*585 FILLER_0_36_317
*586 FILLER_0_36_34
*587 FILLER_0_36_37
*588 FILLER_0_37_136
*589 FILLER_0_37_142
*590 FILLER_0_37_2
*591 FILLER_0_37_206
*592 FILLER_0_37_212
*593 FILLER_0_37_276
*594 FILLER_0_37_282
*595 FILLER_0_37_346
*596 FILLER_0_37_348
*597 FILLER_0_37_66
*598 FILLER_0_37_72
*599 FILLER_0_38_101
*600 FILLER_0_38_107
*601 FILLER_0_38_171
*602 FILLER_0_38_177
*603 FILLER_0_38_2
*604 FILLER_0_38_241
*605 FILLER_0_38_247
*606 FILLER_0_38_311
*607 FILLER_0_38_317
*608 FILLER_0_38_34
*609 FILLER_0_38_37
*610 FILLER_0_39_136
*611 FILLER_0_39_142
*612 FILLER_0_39_2
*613 FILLER_0_39_206
*614 FILLER_0_39_212
*615 FILLER_0_39_276
*616 FILLER_0_39_282
*617 FILLER_0_39_346
*618 FILLER_0_39_348
*619 FILLER_0_39_66
*620 FILLER_0_39_72
*621 FILLER_0_3_136
*622 FILLER_0_3_142
*623 FILLER_0_3_2
*624 FILLER_0_3_206
*625 FILLER_0_3_212
*626 FILLER_0_3_276
*627 FILLER_0_3_282
*628 FILLER_0_3_346
*629 FILLER_0_3_348
*630 FILLER_0_3_66
*631 FILLER_0_3_72
*632 FILLER_0_40_101
*633 FILLER_0_40_107
*634 FILLER_0_40_171
*635 FILLER_0_40_177
*636 FILLER_0_40_2
*637 FILLER_0_40_241
*638 FILLER_0_40_247
*639 FILLER_0_40_311
*640 FILLER_0_40_317
*641 FILLER_0_40_34
*642 FILLER_0_40_37
*643 FILLER_0_41_136
*644 FILLER_0_41_142
*645 FILLER_0_41_2
*646 FILLER_0_41_206
*647 FILLER_0_41_212
*648 FILLER_0_41_276
*649 FILLER_0_41_282
*650 FILLER_0_41_346
*651 FILLER_0_41_348
*652 FILLER_0_41_66
*653 FILLER_0_41_72
*654 FILLER_0_42_101
*655 FILLER_0_42_107
*656 FILLER_0_42_171
*657 FILLER_0_42_177
*658 FILLER_0_42_2
*659 FILLER_0_42_209
*660 FILLER_0_42_237
*661 FILLER_0_42_247
*662 FILLER_0_42_311
*663 FILLER_0_42_317
*664 FILLER_0_42_34
*665 FILLER_0_42_37
*666 FILLER_0_43_136
*667 FILLER_0_43_142
*668 FILLER_0_43_2
*669 FILLER_0_43_206
*670 FILLER_0_43_238
*671 FILLER_0_43_270
*672 FILLER_0_43_278
*673 FILLER_0_43_282
*674 FILLER_0_43_346
*675 FILLER_0_43_348
*676 FILLER_0_43_66
*677 FILLER_0_43_72
*678 FILLER_0_44_104
*679 FILLER_0_44_138
*680 FILLER_0_44_143
*681 FILLER_0_44_159
*682 FILLER_0_44_167
*683 FILLER_0_44_169
*684 FILLER_0_44_172
*685 FILLER_0_44_2
*686 FILLER_0_44_232
*687 FILLER_0_44_236
*688 FILLER_0_44_240
*689 FILLER_0_44_274
*690 FILLER_0_44_308
*691 FILLER_0_44_342
*692 FILLER_0_44_346
*693 FILLER_0_44_348
*694 FILLER_0_44_36
*695 FILLER_0_44_70
*696 FILLER_0_4_101
*697 FILLER_0_4_107
*698 FILLER_0_4_171
*699 FILLER_0_4_177
*700 FILLER_0_4_2
*701 FILLER_0_4_241
*702 FILLER_0_4_247
*703 FILLER_0_4_311
*704 FILLER_0_4_317
*705 FILLER_0_4_34
*706 FILLER_0_4_37
*707 FILLER_0_5_136
*708 FILLER_0_5_142
*709 FILLER_0_5_2
*710 FILLER_0_5_206
*711 FILLER_0_5_212
*712 FILLER_0_5_276
*713 FILLER_0_5_282
*714 FILLER_0_5_346
*715 FILLER_0_5_348
*716 FILLER_0_5_66
*717 FILLER_0_5_72
*718 FILLER_0_6_101
*719 FILLER_0_6_107
*720 FILLER_0_6_171
*721 FILLER_0_6_177
*722 FILLER_0_6_2
*723 FILLER_0_6_241
*724 FILLER_0_6_247
*725 FILLER_0_6_311
*726 FILLER_0_6_317
*727 FILLER_0_6_34
*728 FILLER_0_6_37
*729 FILLER_0_7_136
*730 FILLER_0_7_142
*731 FILLER_0_7_2
*732 FILLER_0_7_206
*733 FILLER_0_7_212
*734 FILLER_0_7_276
*735 FILLER_0_7_282
*736 FILLER_0_7_346
*737 FILLER_0_7_348
*738 FILLER_0_7_66
*739 FILLER_0_7_72
*740 FILLER_0_8_101
*741 FILLER_0_8_107
*742 FILLER_0_8_171
*743 FILLER_0_8_177
*744 FILLER_0_8_2
*745 FILLER_0_8_241
*746 FILLER_0_8_247
*747 FILLER_0_8_311
*748 FILLER_0_8_317
*749 FILLER_0_8_34
*750 FILLER_0_8_37
*751 FILLER_0_9_136
*752 FILLER_0_9_142
*753 FILLER_0_9_2
*754 FILLER_0_9_206
*755 FILLER_0_9_212
*756 FILLER_0_9_276
*757 FILLER_0_9_282
*758 FILLER_0_9_346
*759 FILLER_0_9_348
*760 FILLER_0_9_66
*761 FILLER_0_9_72
*762 PHY_EDGE_ROW_0_Left_45
*763 PHY_EDGE_ROW_0_Right_0
*764 PHY_EDGE_ROW_10_Left_55
*765 PHY_EDGE_ROW_10_Right_10
*766 PHY_EDGE_ROW_11_Left_56
*767 PHY_EDGE_ROW_11_Right_11
*768 PHY_EDGE_ROW_12_Left_57
*769 PHY_EDGE_ROW_12_Right_12
*770 PHY_EDGE_ROW_13_Left_58
*771 PHY_EDGE_ROW_13_Right_13
*772 PHY_EDGE_ROW_14_Left_59
*773 PHY_EDGE_ROW_14_Right_14
*774 PHY_EDGE_ROW_15_Left_60
*775 PHY_EDGE_ROW_15_Right_15
*776 PHY_EDGE_ROW_16_Left_61
*777 PHY_EDGE_ROW_16_Right_16
*778 PHY_EDGE_ROW_17_Left_62
*779 PHY_EDGE_ROW_17_Right_17
*780 PHY_EDGE_ROW_18_Left_63
*781 PHY_EDGE_ROW_18_Right_18
*782 PHY_EDGE_ROW_19_Left_64
*783 PHY_EDGE_ROW_19_Right_19
*784 PHY_EDGE_ROW_1_Left_46
*785 PHY_EDGE_ROW_1_Right_1
*786 PHY_EDGE_ROW_20_Left_65
*787 PHY_EDGE_ROW_20_Right_20
*788 PHY_EDGE_ROW_21_Left_66
*789 PHY_EDGE_ROW_21_Right_21
*790 PHY_EDGE_ROW_22_Left_67
*791 PHY_EDGE_ROW_22_Right_22
*792 PHY_EDGE_ROW_23_Left_68
*793 PHY_EDGE_ROW_23_Right_23
*794 PHY_EDGE_ROW_24_Left_69
*795 PHY_EDGE_ROW_24_Right_24
*796 PHY_EDGE_ROW_25_Left_70
*797 PHY_EDGE_ROW_25_Right_25
*798 PHY_EDGE_ROW_26_Left_71
*799 PHY_EDGE_ROW_26_Right_26
*800 PHY_EDGE_ROW_27_Left_72
*801 PHY_EDGE_ROW_27_Right_27
*802 PHY_EDGE_ROW_28_Left_73
*803 PHY_EDGE_ROW_28_Right_28
*804 PHY_EDGE_ROW_29_Left_74
*805 PHY_EDGE_ROW_29_Right_29
*806 PHY_EDGE_ROW_2_Left_47
*807 PHY_EDGE_ROW_2_Right_2
*808 PHY_EDGE_ROW_30_Left_75
*809 PHY_EDGE_ROW_30_Right_30
*810 PHY_EDGE_ROW_31_Left_76
*811 PHY_EDGE_ROW_31_Right_31
*812 PHY_EDGE_ROW_32_Left_77
*813 PHY_EDGE_ROW_32_Right_32
*814 PHY_EDGE_ROW_33_Left_78
*815 PHY_EDGE_ROW_33_Right_33
*816 PHY_EDGE_ROW_34_Left_79
*817 PHY_EDGE_ROW_34_Right_34
*818 PHY_EDGE_ROW_35_Left_80
*819 PHY_EDGE_ROW_35_Right_35
*820 PHY_EDGE_ROW_36_Left_81
*821 PHY_EDGE_ROW_36_Right_36
*822 PHY_EDGE_ROW_37_Left_82
*823 PHY_EDGE_ROW_37_Right_37
*824 PHY_EDGE_ROW_38_Left_83
*825 PHY_EDGE_ROW_38_Right_38
*826 PHY_EDGE_ROW_39_Left_84
*827 PHY_EDGE_ROW_39_Right_39
*828 PHY_EDGE_ROW_3_Left_48
*829 PHY_EDGE_ROW_3_Right_3
*830 PHY_EDGE_ROW_40_Left_85
*831 PHY_EDGE_ROW_40_Right_40
*832 PHY_EDGE_ROW_41_Left_86
*833 PHY_EDGE_ROW_41_Right_41
*834 PHY_EDGE_ROW_42_Left_87
*835 PHY_EDGE_ROW_42_Right_42
*836 PHY_EDGE_ROW_43_Left_88
*837 PHY_EDGE_ROW_43_Right_43
*838 PHY_EDGE_ROW_44_Left_89
*839 PHY_EDGE_ROW_44_Right_44
*840 PHY_EDGE_ROW_4_Left_49
*841 PHY_EDGE_ROW_4_Right_4
*842 PHY_EDGE_ROW_5_Left_50
*843 PHY_EDGE_ROW_5_Right_5
*844 PHY_EDGE_ROW_6_Left_51
*845 PHY_EDGE_ROW_6_Right_6
*846 PHY_EDGE_ROW_7_Left_52
*847 PHY_EDGE_ROW_7_Right_7
*848 PHY_EDGE_ROW_8_Left_53
*849 PHY_EDGE_ROW_8_Right_8
*850 PHY_EDGE_ROW_9_Left_54
*851 PHY_EDGE_ROW_9_Right_9
*852 TAP_TAPCELL_ROW_0_90
*853 TAP_TAPCELL_ROW_0_91
*854 TAP_TAPCELL_ROW_0_92
*855 TAP_TAPCELL_ROW_0_93
*856 TAP_TAPCELL_ROW_0_94
*857 TAP_TAPCELL_ROW_0_95
*858 TAP_TAPCELL_ROW_0_96
*859 TAP_TAPCELL_ROW_0_97
*860 TAP_TAPCELL_ROW_0_98
*861 TAP_TAPCELL_ROW_0_99
*862 TAP_TAPCELL_ROW_10_140
*863 TAP_TAPCELL_ROW_10_141
*864 TAP_TAPCELL_ROW_10_142
*865 TAP_TAPCELL_ROW_10_143
*866 TAP_TAPCELL_ROW_10_144
*867 TAP_TAPCELL_ROW_11_145
*868 TAP_TAPCELL_ROW_11_146
*869 TAP_TAPCELL_ROW_11_147
*870 TAP_TAPCELL_ROW_11_148
*871 TAP_TAPCELL_ROW_12_149
*872 TAP_TAPCELL_ROW_12_150
*873 TAP_TAPCELL_ROW_12_151
*874 TAP_TAPCELL_ROW_12_152
*875 TAP_TAPCELL_ROW_12_153
*876 TAP_TAPCELL_ROW_13_154
*877 TAP_TAPCELL_ROW_13_155
*878 TAP_TAPCELL_ROW_13_156
*879 TAP_TAPCELL_ROW_13_157
*880 TAP_TAPCELL_ROW_14_158
*881 TAP_TAPCELL_ROW_14_159
*882 TAP_TAPCELL_ROW_14_160
*883 TAP_TAPCELL_ROW_14_161
*884 TAP_TAPCELL_ROW_14_162
*885 TAP_TAPCELL_ROW_15_163
*886 TAP_TAPCELL_ROW_15_164
*887 TAP_TAPCELL_ROW_15_165
*888 TAP_TAPCELL_ROW_15_166
*889 TAP_TAPCELL_ROW_16_167
*890 TAP_TAPCELL_ROW_16_168
*891 TAP_TAPCELL_ROW_16_169
*892 TAP_TAPCELL_ROW_16_170
*893 TAP_TAPCELL_ROW_16_171
*894 TAP_TAPCELL_ROW_17_172
*895 TAP_TAPCELL_ROW_17_173
*896 TAP_TAPCELL_ROW_17_174
*897 TAP_TAPCELL_ROW_17_175
*898 TAP_TAPCELL_ROW_18_176
*899 TAP_TAPCELL_ROW_18_177
*900 TAP_TAPCELL_ROW_18_178
*901 TAP_TAPCELL_ROW_18_179
*902 TAP_TAPCELL_ROW_18_180
*903 TAP_TAPCELL_ROW_19_181
*904 TAP_TAPCELL_ROW_19_182
*905 TAP_TAPCELL_ROW_19_183
*906 TAP_TAPCELL_ROW_19_184
*907 TAP_TAPCELL_ROW_1_100
*908 TAP_TAPCELL_ROW_1_101
*909 TAP_TAPCELL_ROW_1_102
*910 TAP_TAPCELL_ROW_1_103
*911 TAP_TAPCELL_ROW_20_185
*912 TAP_TAPCELL_ROW_20_186
*913 TAP_TAPCELL_ROW_20_187
*914 TAP_TAPCELL_ROW_20_188
*915 TAP_TAPCELL_ROW_20_189
*916 TAP_TAPCELL_ROW_21_190
*917 TAP_TAPCELL_ROW_21_191
*918 TAP_TAPCELL_ROW_21_192
*919 TAP_TAPCELL_ROW_21_193
*920 TAP_TAPCELL_ROW_22_194
*921 TAP_TAPCELL_ROW_22_195
*922 TAP_TAPCELL_ROW_22_196
*923 TAP_TAPCELL_ROW_22_197
*924 TAP_TAPCELL_ROW_22_198
*925 TAP_TAPCELL_ROW_23_199
*926 TAP_TAPCELL_ROW_23_200
*927 TAP_TAPCELL_ROW_23_201
*928 TAP_TAPCELL_ROW_23_202
*929 TAP_TAPCELL_ROW_24_203
*930 TAP_TAPCELL_ROW_24_204
*931 TAP_TAPCELL_ROW_24_205
*932 TAP_TAPCELL_ROW_24_206
*933 TAP_TAPCELL_ROW_24_207
*934 TAP_TAPCELL_ROW_25_208
*935 TAP_TAPCELL_ROW_25_209
*936 TAP_TAPCELL_ROW_25_210
*937 TAP_TAPCELL_ROW_25_211
*938 TAP_TAPCELL_ROW_26_212
*939 TAP_TAPCELL_ROW_26_213
*940 TAP_TAPCELL_ROW_26_214
*941 TAP_TAPCELL_ROW_26_215
*942 TAP_TAPCELL_ROW_26_216
*943 TAP_TAPCELL_ROW_27_217
*944 TAP_TAPCELL_ROW_27_218
*945 TAP_TAPCELL_ROW_27_219
*946 TAP_TAPCELL_ROW_27_220
*947 TAP_TAPCELL_ROW_28_221
*948 TAP_TAPCELL_ROW_28_222
*949 TAP_TAPCELL_ROW_28_223
*950 TAP_TAPCELL_ROW_28_224
*951 TAP_TAPCELL_ROW_28_225
*952 TAP_TAPCELL_ROW_29_226
*953 TAP_TAPCELL_ROW_29_227
*954 TAP_TAPCELL_ROW_29_228
*955 TAP_TAPCELL_ROW_29_229
*956 TAP_TAPCELL_ROW_2_104
*957 TAP_TAPCELL_ROW_2_105
*958 TAP_TAPCELL_ROW_2_106
*959 TAP_TAPCELL_ROW_2_107
*960 TAP_TAPCELL_ROW_2_108
*961 TAP_TAPCELL_ROW_30_230
*962 TAP_TAPCELL_ROW_30_231
*963 TAP_TAPCELL_ROW_30_232
*964 TAP_TAPCELL_ROW_30_233
*965 TAP_TAPCELL_ROW_30_234
*966 TAP_TAPCELL_ROW_31_235
*967 TAP_TAPCELL_ROW_31_236
*968 TAP_TAPCELL_ROW_31_237
*969 TAP_TAPCELL_ROW_31_238
*970 TAP_TAPCELL_ROW_32_239
*971 TAP_TAPCELL_ROW_32_240
*972 TAP_TAPCELL_ROW_32_241
*973 TAP_TAPCELL_ROW_32_242
*974 TAP_TAPCELL_ROW_32_243
*975 TAP_TAPCELL_ROW_33_244
*976 TAP_TAPCELL_ROW_33_245
*977 TAP_TAPCELL_ROW_33_246
*978 TAP_TAPCELL_ROW_33_247
*979 TAP_TAPCELL_ROW_34_248
*980 TAP_TAPCELL_ROW_34_249
*981 TAP_TAPCELL_ROW_34_250
*982 TAP_TAPCELL_ROW_34_251
*983 TAP_TAPCELL_ROW_34_252
*984 TAP_TAPCELL_ROW_35_253
*985 TAP_TAPCELL_ROW_35_254
*986 TAP_TAPCELL_ROW_35_255
*987 TAP_TAPCELL_ROW_35_256
*988 TAP_TAPCELL_ROW_36_257
*989 TAP_TAPCELL_ROW_36_258
*990 TAP_TAPCELL_ROW_36_259
*991 TAP_TAPCELL_ROW_36_260
*992 TAP_TAPCELL_ROW_36_261
*993 TAP_TAPCELL_ROW_37_262
*994 TAP_TAPCELL_ROW_37_263
*995 TAP_TAPCELL_ROW_37_264
*996 TAP_TAPCELL_ROW_37_265
*997 TAP_TAPCELL_ROW_38_266
*998 TAP_TAPCELL_ROW_38_267
*999 TAP_TAPCELL_ROW_38_268
*1000 TAP_TAPCELL_ROW_38_269
*1001 TAP_TAPCELL_ROW_38_270
*1002 TAP_TAPCELL_ROW_39_271
*1003 TAP_TAPCELL_ROW_39_272
*1004 TAP_TAPCELL_ROW_39_273
*1005 TAP_TAPCELL_ROW_39_274
*1006 TAP_TAPCELL_ROW_3_109
*1007 TAP_TAPCELL_ROW_3_110
*1008 TAP_TAPCELL_ROW_3_111
*1009 TAP_TAPCELL_ROW_3_112
*1010 TAP_TAPCELL_ROW_40_275
*1011 TAP_TAPCELL_ROW_40_276
*1012 TAP_TAPCELL_ROW_40_277
*1013 TAP_TAPCELL_ROW_40_278
*1014 TAP_TAPCELL_ROW_40_279
*1015 TAP_TAPCELL_ROW_41_280
*1016 TAP_TAPCELL_ROW_41_281
*1017 TAP_TAPCELL_ROW_41_282
*1018 TAP_TAPCELL_ROW_41_283
*1019 TAP_TAPCELL_ROW_42_284
*1020 TAP_TAPCELL_ROW_42_285
*1021 TAP_TAPCELL_ROW_42_286
*1022 TAP_TAPCELL_ROW_42_287
*1023 TAP_TAPCELL_ROW_42_288
*1024 TAP_TAPCELL_ROW_43_289
*1025 TAP_TAPCELL_ROW_43_290
*1026 TAP_TAPCELL_ROW_43_291
*1027 TAP_TAPCELL_ROW_43_292
*1028 TAP_TAPCELL_ROW_44_293
*1029 TAP_TAPCELL_ROW_44_294
*1030 TAP_TAPCELL_ROW_44_295
*1031 TAP_TAPCELL_ROW_44_296
*1032 TAP_TAPCELL_ROW_44_297
*1033 TAP_TAPCELL_ROW_44_298
*1034 TAP_TAPCELL_ROW_44_299
*1035 TAP_TAPCELL_ROW_44_300
*1036 TAP_TAPCELL_ROW_44_301
*1037 TAP_TAPCELL_ROW_44_302
*1038 TAP_TAPCELL_ROW_4_113
*1039 TAP_TAPCELL_ROW_4_114
*1040 TAP_TAPCELL_ROW_4_115
*1041 TAP_TAPCELL_ROW_4_116
*1042 TAP_TAPCELL_ROW_4_117
*1043 TAP_TAPCELL_ROW_5_118
*1044 TAP_TAPCELL_ROW_5_119
*1045 TAP_TAPCELL_ROW_5_120
*1046 TAP_TAPCELL_ROW_5_121
*1047 TAP_TAPCELL_ROW_6_122
*1048 TAP_TAPCELL_ROW_6_123
*1049 TAP_TAPCELL_ROW_6_124
*1050 TAP_TAPCELL_ROW_6_125
*1051 TAP_TAPCELL_ROW_6_126
*1052 TAP_TAPCELL_ROW_7_127
*1053 TAP_TAPCELL_ROW_7_128
*1054 TAP_TAPCELL_ROW_7_129
*1055 TAP_TAPCELL_ROW_7_130
*1056 TAP_TAPCELL_ROW_8_131
*1057 TAP_TAPCELL_ROW_8_132
*1058 TAP_TAPCELL_ROW_8_133
*1059 TAP_TAPCELL_ROW_8_134
*1060 TAP_TAPCELL_ROW_8_135
*1061 TAP_TAPCELL_ROW_9_136
*1062 TAP_TAPCELL_ROW_9_137
*1063 TAP_TAPCELL_ROW_9_138
*1064 TAP_TAPCELL_ROW_9_139
*1065 _067_
*1066 _068_
*1067 _069_
*1068 _070_
*1069 _071_
*1070 _072_
*1071 _073_
*1072 _074_
*1073 _075_
*1074 _076_
*1075 _077_
*1076 _078_
*1077 _079_
*1078 _080_
*1079 _081_
*1080 _082_
*1081 _083_
*1082 _084_
*1083 _085_
*1084 _086_
*1085 _087_
*1086 _088_
*1087 _089_
*1088 _090_
*1089 _091_
*1090 _092_
*1091 _093_
*1092 _094_
*1093 _095_
*1094 _096_
*1095 _097_
*1096 _098_
*1097 _099_
*1098 _100_
*1099 _101_
*1100 _102_
*1101 _103_
*1102 _104_
*1103 _105_
*1104 _106_
*1105 _107_
*1106 _108_
*1107 _109_
*1108 _110_
*1109 _111_
*1110 _112_
*1111 _113_
*1112 _114_
*1113 _115_
*1114 _116_
*1115 _117_
*1116 _118_
*1117 _119_
*1118 _120_
*1119 _121_
*1120 _122_
*1121 _123_
*1122 _124_
*1123 _125_
*1124 _126_
*1125 _127_
*1126 _128_
*1127 _129_
*1128 _130_
*1129 _131_
*1130 _132_
*1131 _133_
*1132 _134_
*1133 _135_
*1134 _136_
*1135 _137_
*1136 _138_
*1137 _139_
*1138 _140_
*1139 _141_
*1140 _142_
*1141 _143_
*1142 _144_
*1143 _145_
*1144 _146_
*1145 _147_
*1146 _148_
*1147 _149_
*1148 _150_
*1149 _151_
*1150 _152_
*1151 _153_
*1152 _155_
*1153 _156_
*1154 _157_
*1155 _158_
*1156 _159_
*1157 _160_
*1158 _161_
*1159 _162_
*1160 _163_
*1161 clkbuf_0_clk
*1162 clkbuf_1_0__f_clk
*1163 clkbuf_1_1__f_clk
*1164 fanout26
*1165 ita29_27
*1166 output1
*1167 output10
*1168 output11
*1169 output12
*1170 output13
*1171 output14
*1172 output15
*1173 output16
*1174 output17
*1175 output18
*1176 output19
*1177 output2
*1178 output20
*1179 output21
*1180 output22
*1181 output23
*1182 output24
*1183 output25
*1184 output3
*1185 output4
*1186 output5
*1187 output6
*1188 output7
*1189 output8
*1190 output9

*PORTS
clk I
segm[0] O
segm[10] O
segm[11] O
segm[12] O
segm[13] O
segm[1] O
segm[2] O
segm[3] O
segm[4] O
segm[5] O
segm[6] O
segm[7] O
segm[8] O
segm[9] O
sel[0] O
sel[10] O
sel[11] O
sel[1] O
sel[2] O
sel[3] O
sel[4] O
sel[5] O
sel[6] O
sel[7] O
sel[8] O
sel[9] O

*D_NET *1 0.0121329
*CONN
*P clk I
*I *1161:I I *D gf180mcu_fd_sc_mcu7t5v0__clkbuf_16
*I *130:I I *D gf180mcu_fd_sc_mcu7t5v0__antenna
*CAP
1 clk 0.00441818
2 *1161:I 0.000245436
3 *130:I 0
4 *1:17 0.00466362
5 *1161:I *1093:A2 0.000133838
6 *1161:I *1124:A1 0
7 *1161:I *74:12 0.000451297
8 *1161:I *75:31 4.78829e-05
9 *1161:I *101:12 9.88736e-06
10 *1:17 sel[11] 6.4464e-05
11 *1:17 *1077:A1 0.000230129
12 *1:17 *1099:I 0.000137785
13 *1:17 *1124:A1 0
14 *1:17 *1151:D 7.82633e-06
15 *1:17 *1183:I 0.000367922
16 *1:17 *66:35 0.000669709
17 *1:17 *74:12 0
18 *1:17 *80:10 0.000462714
19 *1:17 *98:12 0
20 *1:17 *101:10 0.000199889
21 *1:17 *101:12 2.23385e-05
*RES
1 clk *1:17 47.51 
2 *1:17 *130:I 4.5 
3 *1:17 *1161:I 15.628 
*END

*D_NET *2 0.00148312
*CONN
*P segm[0] O
*I *1165:ZN O *D gf180mcu_fd_sc_mcu7t5v0__tiel
*CAP
1 segm[0] 0.000741562
2 *1165:ZN 0.000741562
*RES
1 *1165:ZN segm[0] 9.478 
*END

*D_NET *3 0.000974529
*CONN
*P segm[10] O
*I *1166:Z O *D gf180mcu_fd_sc_mcu7t5v0__buf_8
*CAP
1 segm[10] 0.000447524
2 *1166:Z 0.000447524
3 segm[10] sel[0] 7.94819e-05
*RES
1 *1166:Z segm[10] 12.154 
*END

*D_NET *4 0.000474771
*CONN
*P segm[11] O
*I *1177:Z O *D gf180mcu_fd_sc_mcu7t5v0__buf_8
*CAP
1 segm[11] 0.000170481
2 *1177:Z 0.000170481
3 segm[11] segm[12] 6.69047e-05
4 segm[11] segm[2] 6.69047e-05
*RES
1 *1177:Z segm[11] 10.71 
*END

*D_NET *5 0.000697711
*CONN
*P segm[12] O
*I *1184:Z O *D gf180mcu_fd_sc_mcu7t5v0__buf_8
*CAP
1 segm[12] 0.000286707
2 *1184:Z 0.000286707
3 segm[12] segm[8] 5.73926e-05
4 segm[11] segm[12] 6.69047e-05
*RES
1 *1184:Z segm[12] 11.318 
*END

*D_NET *6 0.000479643
*CONN
*P segm[13] O
*I *1185:Z O *D gf180mcu_fd_sc_mcu7t5v0__buf_8
*CAP
1 segm[13] 0.000207588
2 *1185:Z 0.000207588
3 segm[13] sel[1] 6.44669e-05
*RES
1 *1185:Z segm[13] 10.71 
*END

*D_NET *7 0.00106517
*CONN
*P segm[1] O
*I *1186:Z O *D gf180mcu_fd_sc_mcu7t5v0__buf_8
*CAP
1 segm[1] 0.000459735
2 *1186:Z 0.000459735
3 segm[1] segm[4] 7.28518e-05
4 segm[1] sel[0] 7.28518e-05
*RES
1 *1186:Z segm[1] 12.458 
*END

*D_NET *8 0.000569698
*CONN
*P segm[2] O
*I *1187:Z O *D gf180mcu_fd_sc_mcu7t5v0__buf_8
*CAP
1 segm[2] 0.000219163
2 *1187:Z 0.000219163
3 segm[2] sel[1] 6.44669e-05
4 segm[11] segm[2] 6.69047e-05
*RES
1 *1187:Z segm[2] 10.938 
*END

*D_NET *9 0.00304679
*CONN
*P segm[3] O
*I *1188:Z O *D gf180mcu_fd_sc_mcu7t5v0__buf_8
*CAP
1 segm[3] 0.00104833
2 *1188:Z 0.00104833
3 segm[3] sel[4] 6.81204e-05
4 segm[3] *1178:I 0.000149579
5 segm[3] *1190:I 0.000732431
*RES
1 *1188:Z segm[3] 21.746 
*END

*D_NET *10 0.000793713
*CONN
*P segm[4] O
*I *1189:Z O *D gf180mcu_fd_sc_mcu7t5v0__buf_8
*CAP
1 segm[4] 0.000326978
2 *1189:Z 0.000326978
3 segm[4] segm[9] 6.69047e-05
4 segm[1] segm[4] 7.28518e-05
*RES
1 *1189:Z segm[4] 11.546 
*END

*D_NET *11 0.0021257
*CONN
*P segm[5] O
*I *1190:Z O *D gf180mcu_fd_sc_mcu7t5v0__buf_8
*CAP
1 segm[5] 0.000996642
2 *1190:Z 0.000996642
3 segm[5] sel[4] 0.000132416
*RES
1 *1190:Z segm[5] 20.454 
*END

*D_NET *12 0.00252836
*CONN
*P segm[6] O
*I *1167:Z O *D gf180mcu_fd_sc_mcu7t5v0__buf_8
*CAP
1 segm[6] 0.00118187
2 *1167:Z 0.00118187
3 segm[6] segm[7] 0.000127271
4 segm[6] *1167:I 3.73535e-05
5 segm[6] *1168:I 0
*RES
1 *1167:Z segm[6] 21.366 
*END

*D_NET *13 0.00231529
*CONN
*P segm[7] O
*I *1168:Z O *D gf180mcu_fd_sc_mcu7t5v0__buf_8
*CAP
1 segm[7] 0.00109401
2 *1168:Z 0.00109401
3 segm[6] segm[7] 0.000127271
*RES
1 *1168:Z segm[7] 21.214 
*END

*D_NET *14 0.000645054
*CONN
*P segm[8] O
*I *1169:Z O *D gf180mcu_fd_sc_mcu7t5v0__buf_8
*CAP
1 segm[8] 0.000265134
2 *1169:Z 0.000265134
3 segm[8] segm[9] 5.73926e-05
4 segm[12] segm[8] 5.73926e-05
*RES
1 *1169:Z segm[8] 10.938 
*END

*D_NET *15 0.000807519
*CONN
*P segm[9] O
*I *1170:Z O *D gf180mcu_fd_sc_mcu7t5v0__buf_8
*CAP
1 segm[9] 0.000341611
2 *1170:Z 0.000341611
3 segm[4] segm[9] 6.69047e-05
4 segm[8] segm[9] 5.73926e-05
*RES
1 *1170:Z segm[9] 11.546 
*END

*D_NET *16 0.000966587
*CONN
*P sel[0] O
*I *1171:Z O *D gf180mcu_fd_sc_mcu7t5v0__buf_8
*CAP
1 sel[0] 0.000407127
2 *1171:Z 0.000407127
3 segm[10] sel[0] 7.94819e-05
4 segm[1] sel[0] 7.28518e-05
*RES
1 *1171:Z sel[0] 12.154 
*END

*D_NET *17 0.000926941
*CONN
*P sel[10] O
*I *1172:Z O *D gf180mcu_fd_sc_mcu7t5v0__buf_8
*CAP
1 sel[10] 0.00046347
2 *1172:Z 0.00046347
*RES
1 *1172:Z sel[10] 12.002 
*END

*D_NET *18 0.000890264
*CONN
*P sel[11] O
*I *1173:Z O *D gf180mcu_fd_sc_mcu7t5v0__buf_8
*CAP
1 sel[11] 0.000383521
2 *1173:Z 0.000383521
3 sel[11] sel[7] 5.87579e-05
4 *1:17 sel[11] 6.4464e-05
*RES
1 *1173:Z sel[11] 11.698 
*END

*D_NET *19 0.000623501
*CONN
*P sel[1] O
*I *1174:Z O *D gf180mcu_fd_sc_mcu7t5v0__buf_8
*CAP
1 sel[1] 0.000247283
2 *1174:Z 0.000247283
3 segm[13] sel[1] 6.44669e-05
4 segm[2] sel[1] 6.44669e-05
*RES
1 *1174:Z sel[1] 11.09 
*END

*D_NET *20 0.00175174
*CONN
*P sel[2] O
*I *1175:Z O *D gf180mcu_fd_sc_mcu7t5v0__buf_8