*SPEF "ieee 1481-1999"
*DESIGN "ita24"
*DATE "11:11:11 Fri 11 11, 1111"
*VENDOR "OpenRCX"
*PROGRAM "Parallel Extraction"
*VERSION "1.0"
*DESIGN_FLOW "NAME_SCOPE LOCAL" "PIN_CAP NONE"
*DIVIDER /
*DELIMITER :
*BUS_DELIMITER []
*T_UNIT 1 NS
*C_UNIT 1 PF
*R_UNIT 1 OHM
*L_UNIT 1 HENRY

*NAME_MAP
*1 clk
*2 net25
*3 segm[10]
*4 segm[11]
*5 segm[12]
*6 segm[13]
*7 segm[1]
*8 segm[2]
*9 net26
*10 segm[4]
*11 segm[5]
*12 segm[6]
*13 segm[7]
*14 segm[8]
*15 segm[9]
*16 sel[0]
*17 sel[10]
*18 sel[11]
*19 sel[1]
*20 sel[2]
*21 sel[3]
*22 sel[4]
*23 sel[5]
*24 sel[6]
*25 sel[7]
*26 sel[8]
*27 sel[9]
*30 _000_
*31 _001_
*32 _002_
*33 _003_
*34 _004_
*35 _005_
*36 _006_
*37 _007_
*38 _008_
*39 _009_
*40 _010_
*41 _011_
*42 _012_
*43 _013_
*44 _014_
*45 _015_
*46 _016_
*47 _017_
*48 _018_
*49 _019_
*50 _020_
*51 _021_
*52 _022_
*53 _023_
*54 _024_
*55 _025_
*56 _026_
*57 _027_
*58 _028_
*59 _029_
*60 _030_
*61 _031_
*62 _032_
*63 _033_
*64 _034_
*65 _035_
*66 _036_
*67 _037_
*68 _038_
*69 _039_
*70 _040_
*71 _041_
*72 _042_
*73 _043_
*74 _044_
*75 _045_
*76 _046_
*77 _047_
*78 _048_
*79 _049_
*80 _050_
*81 _051_
*82 _052_
*83 _053_
*84 _054_
*85 _055_
*86 _056_
*87 _057_
*88 _058_
*89 _059_
*90 _060_
*91 _061_
*92 _062_
*93 _063_
*94 _064_
*95 _065_
*96 _066_
*97 _067_
*98 _068_
*99 _069_
*100 _070_
*101 _071_
*102 _072_
*103 _073_
*104 _074_
*105 _075_
*106 _076_
*107 _077_
*108 _078_
*109 _079_
*110 _080_
*111 _081_
*112 _082_
*113 _083_
*114 _084_
*115 _085_
*116 _086_
*117 _087_
*118 _088_
*119 _089_
*120 _090_
*121 _091_
*122 _092_
*123 _093_
*124 _094_
*125 _095_
*126 _096_
*127 _097_
*128 _098_
*129 _099_
*130 _100_
*131 _101_
*132 _102_
*133 clknet_0_clk
*134 clknet_1_0__leaf_clk
*135 clknet_1_1__leaf_clk
*136 dut24\.count\[0\]
*137 dut24\.count\[1\]
*138 dut24\.count\[2\]
*139 dut24\.count\[3\]
*140 net1
*141 net10
*142 net11
*143 net12
*144 net13
*145 net14
*146 net15
*147 net16
*148 net17
*149 net18
*150 net19
*151 net2
*152 net20
*153 net21
*154 net22
*155 net23
*156 net24
*157 net3
*158 net4
*159 net5
*160 net6
*161 net7
*162 net8
*163 net9
*164 ANTENNA__206__CLK
*165 ANTENNA__207__CLK
*166 ANTENNA__208__CLK
*167 ANTENNA__209__CLK
*168 ANTENNA__210__CLK
*169 ANTENNA__211__CLK
*170 ANTENNA__212__CLK
*171 ANTENNA__213__CLK
*172 ANTENNA__214__CLK
*173 ANTENNA__215__CLK
*174 ANTENNA__216__CLK
*175 ANTENNA__217__CLK
*176 ANTENNA__218__CLK
*177 ANTENNA__219__CLK
*178 ANTENNA__220__CLK
*179 ANTENNA__221__CLK
*180 ANTENNA__222__CLK
*181 ANTENNA__223__CLK
*182 ANTENNA__224__CLK
*183 ANTENNA__225__CLK
*184 ANTENNA__226__CLK
*185 ANTENNA__227__CLK
*186 ANTENNA__228__CLK
*187 ANTENNA__229__CLK
*188 ANTENNA__230__CLK
*189 ANTENNA_clkbuf_0_clk_I
*190 FILLER_0_0_104
*191 FILLER_0_0_138
*192 FILLER_0_0_142
*193 FILLER_0_0_172
*194 FILLER_0_0_176
*195 FILLER_0_0_2
*196 FILLER_0_0_206
*197 FILLER_0_0_210
*198 FILLER_0_0_237
*199 FILLER_0_0_240
*200 FILLER_0_0_274
*201 FILLER_0_0_290
*202 FILLER_0_0_294
*203 FILLER_0_0_299
*204 FILLER_0_0_303
*205 FILLER_0_0_305
*206 FILLER_0_0_308
*207 FILLER_0_0_342
*208 FILLER_0_0_346
*209 FILLER_0_0_348
*210 FILLER_0_0_36
*211 FILLER_0_0_70
*212 FILLER_0_10_101
*213 FILLER_0_10_107
*214 FILLER_0_10_171
*215 FILLER_0_10_177
*216 FILLER_0_10_2
*217 FILLER_0_10_241
*218 FILLER_0_10_247
*219 FILLER_0_10_311
*220 FILLER_0_10_317
*221 FILLER_0_10_34
*222 FILLER_0_10_37
*223 FILLER_0_11_136
*224 FILLER_0_11_142
*225 FILLER_0_11_2
*226 FILLER_0_11_206
*227 FILLER_0_11_212
*228 FILLER_0_11_276
*229 FILLER_0_11_282
*230 FILLER_0_11_346
*231 FILLER_0_11_348
*232 FILLER_0_11_66
*233 FILLER_0_11_72
*234 FILLER_0_12_101
*235 FILLER_0_12_107
*236 FILLER_0_12_171
*237 FILLER_0_12_177
*238 FILLER_0_12_2
*239 FILLER_0_12_241
*240 FILLER_0_12_247
*241 FILLER_0_12_311
*242 FILLER_0_12_317
*243 FILLER_0_12_34
*244 FILLER_0_12_37
*245 FILLER_0_13_136
*246 FILLER_0_13_142
*247 FILLER_0_13_158
*248 FILLER_0_13_162
*249 FILLER_0_13_192
*250 FILLER_0_13_196
*251 FILLER_0_13_2
*252 FILLER_0_13_204
*253 FILLER_0_13_208
*254 FILLER_0_13_212
*255 FILLER_0_13_276
*256 FILLER_0_13_282
*257 FILLER_0_13_346
*258 FILLER_0_13_348
*259 FILLER_0_13_66
*260 FILLER_0_13_72
*261 FILLER_0_14_101
*262 FILLER_0_14_107
*263 FILLER_0_14_152
*264 FILLER_0_14_156
*265 FILLER_0_14_172
*266 FILLER_0_14_174
*267 FILLER_0_14_177
*268 FILLER_0_14_183
*269 FILLER_0_14_187
*270 FILLER_0_14_2
*271 FILLER_0_14_218
*272 FILLER_0_14_222
*273 FILLER_0_14_238
*274 FILLER_0_14_242
*275 FILLER_0_14_244
*276 FILLER_0_14_247
*277 FILLER_0_14_311
*278 FILLER_0_14_317
*279 FILLER_0_14_34
*280 FILLER_0_14_37
*281 FILLER_0_15_104
*282 FILLER_0_15_108
*283 FILLER_0_15_110
*284 FILLER_0_15_142
*285 FILLER_0_15_153
*286 FILLER_0_15_191
*287 FILLER_0_15_195
*288 FILLER_0_15_2
*289 FILLER_0_15_204
*290 FILLER_0_15_241
*291 FILLER_0_15_245
*292 FILLER_0_15_277
*293 FILLER_0_15_279
*294 FILLER_0_15_282
*295 FILLER_0_15_346
*296 FILLER_0_15_348
*297 FILLER_0_15_66
*298 FILLER_0_15_72
*299 FILLER_0_16_101
*300 FILLER_0_16_107
*301 FILLER_0_16_123
*302 FILLER_0_16_131
*303 FILLER_0_16_143
*304 FILLER_0_16_182
*305 FILLER_0_16_186
*306 FILLER_0_16_2
*307 FILLER_0_16_202
*308 FILLER_0_16_220
*309 FILLER_0_16_236
*310 FILLER_0_16_244
*311 FILLER_0_16_247
*312 FILLER_0_16_311
*313 FILLER_0_16_317
*314 FILLER_0_16_321
*315 FILLER_0_16_34
*316 FILLER_0_16_37
*317 FILLER_0_17_113
*318 FILLER_0_17_117
*319 FILLER_0_17_119
*320 FILLER_0_17_126
*321 FILLER_0_17_130
*322 FILLER_0_17_138
*323 FILLER_0_17_152
*324 FILLER_0_17_156
*325 FILLER_0_17_164
*326 FILLER_0_17_166
*327 FILLER_0_17_176
*328 FILLER_0_17_192
*329 FILLER_0_17_2
*330 FILLER_0_17_202
*331 FILLER_0_17_212
*332 FILLER_0_17_276
*333 FILLER_0_17_282
*334 FILLER_0_17_346
*335 FILLER_0_17_348
*336 FILLER_0_17_66
*337 FILLER_0_17_72
*338 FILLER_0_17_80
*339 FILLER_0_18_120
*340 FILLER_0_18_152
*341 FILLER_0_18_160
*342 FILLER_0_18_169
*343 FILLER_0_18_173
*344 FILLER_0_18_182
*345 FILLER_0_18_188
*346 FILLER_0_18_2
*347 FILLER_0_18_204
*348 FILLER_0_18_212
*349 FILLER_0_18_253
*350 FILLER_0_18_285
*351 FILLER_0_18_301
*352 FILLER_0_18_309
*353 FILLER_0_18_313
*354 FILLER_0_18_317
*355 FILLER_0_18_321
*356 FILLER_0_18_34
*357 FILLER_0_18_37
*358 FILLER_0_18_69
*359 FILLER_0_18_85
*360 FILLER_0_18_93
*361 FILLER_0_19_118
*362 FILLER_0_19_134
*363 FILLER_0_19_177
*364 FILLER_0_19_179
*365 FILLER_0_19_185
*366 FILLER_0_19_195
*367 FILLER_0_19_2
*368 FILLER_0_19_203
*369 FILLER_0_19_207
*370 FILLER_0_19_228
*371 FILLER_0_19_260
*372 FILLER_0_19_276
*373 FILLER_0_19_282
*374 FILLER_0_19_314
*375 FILLER_0_19_322
*376 FILLER_0_19_66
*377 FILLER_0_19_72
*378 FILLER_0_19_88
*379 FILLER_0_19_92
*380 FILLER_0_1_136
*381 FILLER_0_1_142
*382 FILLER_0_1_144
*383 FILLER_0_1_171
*384 FILLER_0_1_2
*385 FILLER_0_1_201
*386 FILLER_0_1_209
*387 FILLER_0_1_212
*388 FILLER_0_1_276
*389 FILLER_0_1_282
*390 FILLER_0_1_346
*391 FILLER_0_1_348
*392 FILLER_0_1_66
*393 FILLER_0_1_72
*394 FILLER_0_20_104
*395 FILLER_0_20_119
*396 FILLER_0_20_127
*397 FILLER_0_20_129
*398 FILLER_0_20_141
*399 FILLER_0_20_151
*400 FILLER_0_20_158
*401 FILLER_0_20_177
*402 FILLER_0_20_195
*403 FILLER_0_20_2
*404 FILLER_0_20_212
*405 FILLER_0_20_247
*406 FILLER_0_20_311
*407 FILLER_0_20_317
*408 FILLER_0_20_321
*409 FILLER_0_20_34
*410 FILLER_0_20_37
*411 FILLER_0_20_69
*412 FILLER_0_20_73
*413 FILLER_0_21_106
*414 FILLER_0_21_135
*415 FILLER_0_21_139
*416 FILLER_0_21_158
*417 FILLER_0_21_160
*418 FILLER_0_21_2
*419 FILLER_0_21_200
*420 FILLER_0_21_212
*421 FILLER_0_21_214
*422 FILLER_0_21_244
*423 FILLER_0_21_276
*424 FILLER_0_21_282
*425 FILLER_0_21_346
*426 FILLER_0_21_348
*427 FILLER_0_21_66
*428 FILLER_0_21_72
*429 FILLER_0_22_107
*430 FILLER_0_22_111
*431 FILLER_0_22_172
*432 FILLER_0_22_174
*433 FILLER_0_22_177
*434 FILLER_0_22_179
*435 FILLER_0_22_2
*436 FILLER_0_22_230
*437 FILLER_0_22_238
*438 FILLER_0_22_242
*439 FILLER_0_22_244
*440 FILLER_0_22_247
*441 FILLER_0_22_311
*442 FILLER_0_22_317
*443 FILLER_0_22_34
*444 FILLER_0_22_37
*445 FILLER_0_22_69
*446 FILLER_0_22_73
*447 FILLER_0_22_75
*448 FILLER_0_23_128
*449 FILLER_0_23_198
*450 FILLER_0_23_2
*451 FILLER_0_23_225
*452 FILLER_0_23_257
*453 FILLER_0_23_273
*454 FILLER_0_23_277
*455 FILLER_0_23_279
*456 FILLER_0_23_282
*457 FILLER_0_23_346
*458 FILLER_0_23_348
*459 FILLER_0_23_66
*460 FILLER_0_23_72
*461 FILLER_0_23_88
*462 FILLER_0_23_96
*463 FILLER_0_23_98
*464 FILLER_0_24_101
*465 FILLER_0_24_120
*466 FILLER_0_24_138
*467 FILLER_0_24_142
*468 FILLER_0_24_177
*469 FILLER_0_24_190
*470 FILLER_0_24_244
*471 FILLER_0_24_247
*472 FILLER_0_24_28
*473 FILLER_0_24_311
*474 FILLER_0_24_317
*475 FILLER_0_24_32
*476 FILLER_0_24_321
*477 FILLER_0_24_34
*478 FILLER_0_24_37
*479 FILLER_0_25_104
*480 FILLER_0_25_117
*481 FILLER_0_25_133
*482 FILLER_0_25_137
*483 FILLER_0_25_139
*484 FILLER_0_25_156
*485 FILLER_0_25_160
*486 FILLER_0_25_162
*487 FILLER_0_25_168
*488 FILLER_0_25_170
*489 FILLER_0_25_177
*490 FILLER_0_25_185
*491 FILLER_0_25_189
*492 FILLER_0_25_2
*493 FILLER_0_25_209
*494 FILLER_0_25_212
*495 FILLER_0_25_216
*496 FILLER_0_25_282
*497 FILLER_0_25_346
*498 FILLER_0_25_348
*499 FILLER_0_25_66
*500 FILLER_0_25_72
*501 FILLER_0_26_107
*502 FILLER_0_26_118
*503 FILLER_0_26_159
*504 FILLER_0_26_163
*505 FILLER_0_26_171
*506 FILLER_0_26_184
*507 FILLER_0_26_192
*508 FILLER_0_26_229
*509 FILLER_0_26_233
*510 FILLER_0_26_241
*511 FILLER_0_26_247
*512 FILLER_0_26_28
*513 FILLER_0_26_311
*514 FILLER_0_26_317
*515 FILLER_0_26_32
*516 FILLER_0_26_34
*517 FILLER_0_26_37
*518 FILLER_0_27_114
*519 FILLER_0_27_118
*520 FILLER_0_27_134
*521 FILLER_0_27_138
*522 FILLER_0_27_142
*523 FILLER_0_27_153
*524 FILLER_0_27_161
*525 FILLER_0_27_191
*526 FILLER_0_27_195
*527 FILLER_0_27_199
*528 FILLER_0_27_247
*529 FILLER_0_27_251
*530 FILLER_0_27_267
*531 FILLER_0_27_275
*532 FILLER_0_27_279
*533 FILLER_0_27_28
*534 FILLER_0_27_282
*535 FILLER_0_27_314
*536 FILLER_0_27_322
*537 FILLER_0_27_60
*538 FILLER_0_27_68
*539 FILLER_0_27_72
*540 FILLER_0_27_80
*541 FILLER_0_27_84
*542 FILLER_0_28_111
*543 FILLER_0_28_115
*544 FILLER_0_28_123
*545 FILLER_0_28_127
*546 FILLER_0_28_135
*547 FILLER_0_28_147
*548 FILLER_0_28_163
*549 FILLER_0_28_171
*550 FILLER_0_28_182
*551 FILLER_0_28_198
*552 FILLER_0_28_206
*553 FILLER_0_28_210
*554 FILLER_0_28_212
*555 FILLER_0_28_223
*556 FILLER_0_28_239
*557 FILLER_0_28_243
*558 FILLER_0_28_247
*559 FILLER_0_28_28
*560 FILLER_0_28_311
*561 FILLER_0_28_317
*562 FILLER_0_28_32
*563 FILLER_0_28_321
*564 FILLER_0_28_34
*565 FILLER_0_28_37
*566 FILLER_0_28_69
*567 FILLER_0_28_73
*568 FILLER_0_28_75
*569 FILLER_0_29_104
*570 FILLER_0_29_108
*571 FILLER_0_29_110
*572 FILLER_0_29_142
*573 FILLER_0_29_146
*574 FILLER_0_29_150
*575 FILLER_0_29_156
*576 FILLER_0_29_164
*577 FILLER_0_29_174
*578 FILLER_0_29_190
*579 FILLER_0_29_2
*580 FILLER_0_29_204
*581 FILLER_0_29_208
*582 FILLER_0_29_212
*583 FILLER_0_29_276
*584 FILLER_0_29_282
*585 FILLER_0_29_314
*586 FILLER_0_29_322
*587 FILLER_0_29_66
*588 FILLER_0_29_72
*589 FILLER_0_2_101
*590 FILLER_0_2_107
*591 FILLER_0_2_171
*592 FILLER_0_2_177
*593 FILLER_0_2_2
*594 FILLER_0_2_241
*595 FILLER_0_2_247
*596 FILLER_0_2_311
*597 FILLER_0_2_317
*598 FILLER_0_2_34
*599 FILLER_0_2_37
*600 FILLER_0_30_101
*601 FILLER_0_30_107
*602 FILLER_0_30_123
*603 FILLER_0_30_131
*604 FILLER_0_30_135
*605 FILLER_0_30_168
*606 FILLER_0_30_174
*607 FILLER_0_30_177
*608 FILLER_0_30_179
*609 FILLER_0_30_182
*610 FILLER_0_30_190
*611 FILLER_0_30_2
*612 FILLER_0_30_220
*613 FILLER_0_30_224
*614 FILLER_0_30_240
*615 FILLER_0_30_244
*616 FILLER_0_30_247
*617 FILLER_0_30_311
*618 FILLER_0_30_317
*619 FILLER_0_30_34
*620 FILLER_0_30_37
*621 FILLER_0_31_136
*622 FILLER_0_31_142
*623 FILLER_0_31_150
*624 FILLER_0_31_180
*625 FILLER_0_31_2
*626 FILLER_0_31_217
*627 FILLER_0_31_221
*628 FILLER_0_31_253
*629 FILLER_0_31_269
*630 FILLER_0_31_277
*631 FILLER_0_31_279
*632 FILLER_0_31_282
*633 FILLER_0_31_346
*634 FILLER_0_31_348
*635 FILLER_0_31_66
*636 FILLER_0_31_72
*637 FILLER_0_32_101
*638 FILLER_0_32_107
*639 FILLER_0_32_139
*640 FILLER_0_32_155
*641 FILLER_0_32_173
*642 FILLER_0_32_177
*643 FILLER_0_32_193
*644 FILLER_0_32_199
*645 FILLER_0_32_2
*646 FILLER_0_32_203
*647 FILLER_0_32_210
*648 FILLER_0_32_242
*649 FILLER_0_32_244
*650 FILLER_0_32_247
*651 FILLER_0_32_311
*652 FILLER_0_32_317
*653 FILLER_0_32_34
*654 FILLER_0_32_37
*655 FILLER_0_33_136
*656 FILLER_0_33_142
*657 FILLER_0_33_2
*658 FILLER_0_33_206
*659 FILLER_0_33_212
*660 FILLER_0_33_276
*661 FILLER_0_33_282
*662 FILLER_0_33_346
*663 FILLER_0_33_348
*664 FILLER_0_33_66
*665 FILLER_0_33_72
*666 FILLER_0_34_101
*667 FILLER_0_34_107
*668 FILLER_0_34_171
*669 FILLER_0_34_177
*670 FILLER_0_34_2
*671 FILLER_0_34_241
*672 FILLER_0_34_247
*673 FILLER_0_34_311
*674 FILLER_0_34_317
*675 FILLER_0_34_34
*676 FILLER_0_34_37
*677 FILLER_0_35_136
*678 FILLER_0_35_142
*679 FILLER_0_35_2
*680 FILLER_0_35_206
*681 FILLER_0_35_212
*682 FILLER_0_35_276
*683 FILLER_0_35_282
*684 FILLER_0_35_346
*685 FILLER_0_35_348
*686 FILLER_0_35_66
*687 FILLER_0_35_72
*688 FILLER_0_36_101
*689 FILLER_0_36_107
*690 FILLER_0_36_171
*691 FILLER_0_36_177
*692 FILLER_0_36_2
*693 FILLER_0_36_241
*694 FILLER_0_36_247
*695 FILLER_0_36_311
*696 FILLER_0_36_317
*697 FILLER_0_36_34
*698 FILLER_0_36_37
*699 FILLER_0_37_136
*700 FILLER_0_37_142
*701 FILLER_0_37_2
*702 FILLER_0_37_206
*703 FILLER_0_37_212
*704 FILLER_0_37_276
*705 FILLER_0_37_282
*706 FILLER_0_37_346
*707 FILLER_0_37_348
*708 FILLER_0_37_66
*709 FILLER_0_37_72
*710 FILLER_0_38_101
*711 FILLER_0_38_107
*712 FILLER_0_38_171
*713 FILLER_0_38_177
*714 FILLER_0_38_2
*715 FILLER_0_38_241
*716 FILLER_0_38_247
*717 FILLER_0_38_311
*718 FILLER_0_38_317
*719 FILLER_0_38_34
*720 FILLER_0_38_37
*721 FILLER_0_39_136
*722 FILLER_0_39_142
*723 FILLER_0_39_2
*724 FILLER_0_39_206
*725 FILLER_0_39_212
*726 FILLER_0_39_276
*727 FILLER_0_39_282
*728 FILLER_0_39_346
*729 FILLER_0_39_348
*730 FILLER_0_39_66
*731 FILLER_0_39_72
*732 FILLER_0_3_136
*733 FILLER_0_3_142
*734 FILLER_0_3_2
*735 FILLER_0_3_206
*736 FILLER_0_3_212
*737 FILLER_0_3_276
*738 FILLER_0_3_282
*739 FILLER_0_3_346
*740 FILLER_0_3_348
*741 FILLER_0_3_66
*742 FILLER_0_3_72
*743 FILLER_0_40_101
*744 FILLER_0_40_107
*745 FILLER_0_40_171
*746 FILLER_0_40_177
*747 FILLER_0_40_2
*748 FILLER_0_40_241
*749 FILLER_0_40_247
*750 FILLER_0_40_311
*751 FILLER_0_40_317
*752 FILLER_0_40_34
*753 FILLER_0_40_37
*754 FILLER_0_41_136
*755 FILLER_0_41_142
*756 FILLER_0_41_2
*757 FILLER_0_41_206
*758 FILLER_0_41_212
*759 FILLER_0_41_276
*760 FILLER_0_41_282
*761 FILLER_0_41_346
*762 FILLER_0_41_348
*763 FILLER_0_41_66
*764 FILLER_0_41_72
*765 FILLER_0_42_101
*766 FILLER_0_42_107
*767 FILLER_0_42_171
*768 FILLER_0_42_177
*769 FILLER_0_42_2
*770 FILLER_0_42_209
*771 FILLER_0_42_243
*772 FILLER_0_42_247
*773 FILLER_0_42_311
*774 FILLER_0_42_317
*775 FILLER_0_42_34
*776 FILLER_0_42_37
*777 FILLER_0_43_136
*778 FILLER_0_43_142
*779 FILLER_0_43_144
*780 FILLER_0_43_171
*781 FILLER_0_43_2
*782 FILLER_0_43_201
*783 FILLER_0_43_209
*784 FILLER_0_43_238
*785 FILLER_0_43_270
*786 FILLER_0_43_278
*787 FILLER_0_43_282
*788 FILLER_0_43_346
*789 FILLER_0_43_348
*790 FILLER_0_43_66
*791 FILLER_0_43_72
*792 FILLER_0_44_104
*793 FILLER_0_44_138
*794 FILLER_0_44_142
*795 FILLER_0_44_172
*796 FILLER_0_44_176
*797 FILLER_0_44_2
*798 FILLER_0_44_236
*799 FILLER_0_44_240
*800 FILLER_0_44_274
*801 FILLER_0_44_308
*802 FILLER_0_44_342
*803 FILLER_0_44_346
*804 FILLER_0_44_348
*805 FILLER_0_44_36
*806 FILLER_0_44_70
*807 FILLER_0_4_101
*808 FILLER_0_4_107
*809 FILLER_0_4_171
*810 FILLER_0_4_177
*811 FILLER_0_4_2
*812 FILLER_0_4_241
*813 FILLER_0_4_247
*814 FILLER_0_4_311
*815 FILLER_0_4_317
*816 FILLER_0_4_34
*817 FILLER_0_4_37
*818 FILLER_0_5_136
*819 FILLER_0_5_142
*820 FILLER_0_5_2
*821 FILLER_0_5_206
*822 FILLER_0_5_212
*823 FILLER_0_5_276
*824 FILLER_0_5_282
*825 FILLER_0_5_346
*826 FILLER_0_5_348
*827 FILLER_0_5_66
*828 FILLER_0_5_72
*829 FILLER_0_6_101
*830 FILLER_0_6_107
*831 FILLER_0_6_171
*832 FILLER_0_6_177
*833 FILLER_0_6_2
*834 FILLER_0_6_241
*835 FILLER_0_6_247
*836 FILLER_0_6_311
*837 FILLER_0_6_317
*838 FILLER_0_6_34
*839 FILLER_0_6_37
*840 FILLER_0_7_136
*841 FILLER_0_7_142
*842 FILLER_0_7_2
*843 FILLER_0_7_206
*844 FILLER_0_7_212
*845 FILLER_0_7_276
*846 FILLER_0_7_282
*847 FILLER_0_7_346
*848 FILLER_0_7_348
*849 FILLER_0_7_66
*850 FILLER_0_7_72
*851 FILLER_0_8_101
*852 FILLER_0_8_107
*853 FILLER_0_8_171
*854 FILLER_0_8_177
*855 FILLER_0_8_2
*856 FILLER_0_8_241
*857 FILLER_0_8_247
*858 FILLER_0_8_311
*859 FILLER_0_8_317
*860 FILLER_0_8_34
*861 FILLER_0_8_37
*862 FILLER_0_9_136
*863 FILLER_0_9_142
*864 FILLER_0_9_2
*865 FILLER_0_9_206
*866 FILLER_0_9_212
*867 FILLER_0_9_276
*868 FILLER_0_9_282
*869 FILLER_0_9_346
*870 FILLER_0_9_348
*871 FILLER_0_9_66
*872 FILLER_0_9_72
*873 PHY_EDGE_ROW_0_Left_45
*874 PHY_EDGE_ROW_0_Right_0
*875 PHY_EDGE_ROW_10_Left_55
*876 PHY_EDGE_ROW_10_Right_10
*877 PHY_EDGE_ROW_11_Left_56
*878 PHY_EDGE_ROW_11_Right_11
*879 PHY_EDGE_ROW_12_Left_57
*880 PHY_EDGE_ROW_12_Right_12
*881 PHY_EDGE_ROW_13_Left_58
*882 PHY_EDGE_ROW_13_Right_13
*883 PHY_EDGE_ROW_14_Left_59
*884 PHY_EDGE_ROW_14_Right_14
*885 PHY_EDGE_ROW_15_Left_60
*886 PHY_EDGE_ROW_15_Right_15
*887 PHY_EDGE_ROW_16_Left_61
*888 PHY_EDGE_ROW_16_Right_16
*889 PHY_EDGE_ROW_17_Left_62
*890 PHY_EDGE_ROW_17_Right_17
*891 PHY_EDGE_ROW_18_Left_63
*892 PHY_EDGE_ROW_18_Right_18
*893 PHY_EDGE_ROW_19_Left_64
*894 PHY_EDGE_ROW_19_Right_19
*895 PHY_EDGE_ROW_1_Left_46
*896 PHY_EDGE_ROW_1_Right_1
*897 PHY_EDGE_ROW_20_Left_65
*898 PHY_EDGE_ROW_20_Right_20
*899 PHY_EDGE_ROW_21_Left_66
*900 PHY_EDGE_ROW_21_Right_21
*901 PHY_EDGE_ROW_22_Left_67
*902 PHY_EDGE_ROW_22_Right_22
*903 PHY_EDGE_ROW_23_Left_68
*904 PHY_EDGE_ROW_23_Right_23
*905 PHY_EDGE_ROW_24_Left_69
*906 PHY_EDGE_ROW_24_Right_24
*907 PHY_EDGE_ROW_25_Left_70
*908 PHY_EDGE_ROW_25_Right_25
*909 PHY_EDGE_ROW_26_Left_71
*910 PHY_EDGE_ROW_26_Right_26
*911 PHY_EDGE_ROW_27_Left_72
*912 PHY_EDGE_ROW_27_Right_27
*913 PHY_EDGE_ROW_28_Left_73
*914 PHY_EDGE_ROW_28_Right_28
*915 PHY_EDGE_ROW_29_Left_74
*916 PHY_EDGE_ROW_29_Right_29
*917 PHY_EDGE_ROW_2_Left_47
*918 PHY_EDGE_ROW_2_Right_2
*919 PHY_EDGE_ROW_30_Left_75
*920 PHY_EDGE_ROW_30_Right_30
*921 PHY_EDGE_ROW_31_Left_76
*922 PHY_EDGE_ROW_31_Right_31
*923 PHY_EDGE_ROW_32_Left_77
*924 PHY_EDGE_ROW_32_Right_32
*925 PHY_EDGE_ROW_33_Left_78
*926 PHY_EDGE_ROW_33_Right_33
*927 PHY_EDGE_ROW_34_Left_79
*928 PHY_EDGE_ROW_34_Right_34
*929 PHY_EDGE_ROW_35_Left_80
*930 PHY_EDGE_ROW_35_Right_35
*931 PHY_EDGE_ROW_36_Left_81
*932 PHY_EDGE_ROW_36_Right_36
*933 PHY_EDGE_ROW_37_Left_82
*934 PHY_EDGE_ROW_37_Right_37
*935 PHY_EDGE_ROW_38_Left_83
*936 PHY_EDGE_ROW_38_Right_38
*937 PHY_EDGE_ROW_39_Left_84
*938 PHY_EDGE_ROW_39_Right_39
*939 PHY_EDGE_ROW_3_Left_48
*940 PHY_EDGE_ROW_3_Right_3
*941 PHY_EDGE_ROW_40_Left_85
*942 PHY_EDGE_ROW_40_Right_40
*943 PHY_EDGE_ROW_41_Left_86
*944 PHY_EDGE_ROW_41_Right_41
*945 PHY_EDGE_ROW_42_Left_87
*946 PHY_EDGE_ROW_42_Right_42
*947 PHY_EDGE_ROW_43_Left_88
*948 PHY_EDGE_ROW_43_Right_43
*949 PHY_EDGE_ROW_44_Left_89
*950 PHY_EDGE_ROW_44_Right_44
*951 PHY_EDGE_ROW_4_Left_49
*952 PHY_EDGE_ROW_4_Right_4
*953 PHY_EDGE_ROW_5_Left_50
*954 PHY_EDGE_ROW_5_Right_5
*955 PHY_EDGE_ROW_6_Left_51
*956 PHY_EDGE_ROW_6_Right_6
*957 PHY_EDGE_ROW_7_Left_52
*958 PHY_EDGE_ROW_7_Right_7
*959 PHY_EDGE_ROW_8_Left_53
*960 PHY_EDGE_ROW_8_Right_8
*961 PHY_EDGE_ROW_9_Left_54
*962 PHY_EDGE_ROW_9_Right_9
*963 TAP_TAPCELL_ROW_0_90
*964 TAP_TAPCELL_ROW_0_91
*965 TAP_TAPCELL_ROW_0_92
*966 TAP_TAPCELL_ROW_0_93
*967 TAP_TAPCELL_ROW_0_94
*968 TAP_TAPCELL_ROW_0_95
*969 TAP_TAPCELL_ROW_0_96
*970 TAP_TAPCELL_ROW_0_97
*971 TAP_TAPCELL_ROW_0_98
*972 TAP_TAPCELL_ROW_0_99
*973 TAP_TAPCELL_ROW_10_140
*974 TAP_TAPCELL_ROW_10_141
*975 TAP_TAPCELL_ROW_10_142
*976 TAP_TAPCELL_ROW_10_143
*977 TAP_TAPCELL_ROW_10_144
*978 TAP_TAPCELL_ROW_11_145
*979 TAP_TAPCELL_ROW_11_146
*980 TAP_TAPCELL_ROW_11_147
*981 TAP_TAPCELL_ROW_11_148
*982 TAP_TAPCELL_ROW_12_149
*983 TAP_TAPCELL_ROW_12_150
*984 TAP_TAPCELL_ROW_12_151
*985 TAP_TAPCELL_ROW_12_152
*986 TAP_TAPCELL_ROW_12_153
*987 TAP_TAPCELL_ROW_13_154
*988 TAP_TAPCELL_ROW_13_155
*989 TAP_TAPCELL_ROW_13_156
*990 TAP_TAPCELL_ROW_13_157
*991 TAP_TAPCELL_ROW_14_158
*992 TAP_TAPCELL_ROW_14_159
*993 TAP_TAPCELL_ROW_14_160
*994 TAP_TAPCELL_ROW_14_161
*995 TAP_TAPCELL_ROW_14_162
*996 TAP_TAPCELL_ROW_15_163
*997 TAP_TAPCELL_ROW_15_164
*998 TAP_TAPCELL_ROW_15_165
*999 TAP_TAPCELL_ROW_15_166
*1000 TAP_TAPCELL_ROW_16_167
*1001 TAP_TAPCELL_ROW_16_168
*1002 TAP_TAPCELL_ROW_16_169
*1003 TAP_TAPCELL_ROW_16_170
*1004 TAP_TAPCELL_ROW_16_171
*1005 TAP_TAPCELL_ROW_17_172
*1006 TAP_TAPCELL_ROW_17_173
*1007 TAP_TAPCELL_ROW_17_174
*1008 TAP_TAPCELL_ROW_17_175
*1009 TAP_TAPCELL_ROW_18_176
*1010 TAP_TAPCELL_ROW_18_177
*1011 TAP_TAPCELL_ROW_18_178
*1012 TAP_TAPCELL_ROW_18_179
*1013 TAP_TAPCELL_ROW_18_180
*1014 TAP_TAPCELL_ROW_19_181
*1015 TAP_TAPCELL_ROW_19_182
*1016 TAP_TAPCELL_ROW_19_183
*1017 TAP_TAPCELL_ROW_19_184
*1018 TAP_TAPCELL_ROW_1_100
*1019 TAP_TAPCELL_ROW_1_101
*1020 TAP_TAPCELL_ROW_1_102
*1021 TAP_TAPCELL_ROW_1_103
*1022 TAP_TAPCELL_ROW_20_185
*1023 TAP_TAPCELL_ROW_20_186
*1024 TAP_TAPCELL_ROW_20_187
*1025 TAP_TAPCELL_ROW_20_188
*1026 TAP_TAPCELL_ROW_20_189
*1027 TAP_TAPCELL_ROW_21_190
*1028 TAP_TAPCELL_ROW_21_191
*1029 TAP_TAPCELL_ROW_21_192
*1030 TAP_TAPCELL_ROW_21_193
*1031 TAP_TAPCELL_ROW_22_194
*1032 TAP_TAPCELL_ROW_22_195
*1033 TAP_TAPCELL_ROW_22_196
*1034 TAP_TAPCELL_ROW_22_197
*1035 TAP_TAPCELL_ROW_22_198
*1036 TAP_TAPCELL_ROW_23_199
*1037 TAP_TAPCELL_ROW_23_200
*1038 TAP_TAPCELL_ROW_23_201
*1039 TAP_TAPCELL_ROW_23_202
*1040 TAP_TAPCELL_ROW_24_203
*1041 TAP_TAPCELL_ROW_24_204
*1042 TAP_TAPCELL_ROW_24_205
*1043 TAP_TAPCELL_ROW_24_206
*1044 TAP_TAPCELL_ROW_24_207
*1045 TAP_TAPCELL_ROW_25_208
*1046 TAP_TAPCELL_ROW_25_209
*1047 TAP_TAPCELL_ROW_25_210
*1048 TAP_TAPCELL_ROW_25_211
*1049 TAP_TAPCELL_ROW_26_212
*1050 TAP_TAPCELL_ROW_26_213
*1051 TAP_TAPCELL_ROW_26_214
*1052 TAP_TAPCELL_ROW_26_215
*1053 TAP_TAPCELL_ROW_26_216
*1054 TAP_TAPCELL_ROW_27_217
*1055 TAP_TAPCELL_ROW_27_218
*1056 TAP_TAPCELL_ROW_27_219
*1057 TAP_TAPCELL_ROW_27_220
*1058 TAP_TAPCELL_ROW_28_221
*1059 TAP_TAPCELL_ROW_28_222
*1060 TAP_TAPCELL_ROW_28_223
*1061 TAP_TAPCELL_ROW_28_224
*1062 TAP_TAPCELL_ROW_28_225
*1063 TAP_TAPCELL_ROW_29_226
*1064 TAP_TAPCELL_ROW_29_227
*1065 TAP_TAPCELL_ROW_29_228
*1066 TAP_TAPCELL_ROW_29_229
*1067 TAP_TAPCELL_ROW_2_104
*1068 TAP_TAPCELL_ROW_2_105
*1069 TAP_TAPCELL_ROW_2_106
*1070 TAP_TAPCELL_ROW_2_107
*1071 TAP_TAPCELL_ROW_2_108
*1072 TAP_TAPCELL_ROW_30_230
*1073 TAP_TAPCELL_ROW_30_231
*1074 TAP_TAPCELL_ROW_30_232
*1075 TAP_TAPCELL_ROW_30_233
*1076 TAP_TAPCELL_ROW_30_234
*1077 TAP_TAPCELL_ROW_31_235
*1078 TAP_TAPCELL_ROW_31_236
*1079 TAP_TAPCELL_ROW_31_237
*1080 TAP_TAPCELL_ROW_31_238
*1081 TAP_TAPCELL_ROW_32_239
*1082 TAP_TAPCELL_ROW_32_240
*1083 TAP_TAPCELL_ROW_32_241
*1084 TAP_TAPCELL_ROW_32_242
*1085 TAP_TAPCELL_ROW_32_243
*1086 TAP_TAPCELL_ROW_33_244
*1087 TAP_TAPCELL_ROW_33_245
*1088 TAP_TAPCELL_ROW_33_246
*1089 TAP_TAPCELL_ROW_33_247
*1090 TAP_TAPCELL_ROW_34_248
*1091 TAP_TAPCELL_ROW_34_249
*1092 TAP_TAPCELL_ROW_34_250
*1093 TAP_TAPCELL_ROW_34_251
*1094 TAP_TAPCELL_ROW_34_252
*1095 TAP_TAPCELL_ROW_35_253
*1096 TAP_TAPCELL_ROW_35_254
*1097 TAP_TAPCELL_ROW_35_255
*1098 TAP_TAPCELL_ROW_35_256
*1099 TAP_TAPCELL_ROW_36_257
*1100 TAP_TAPCELL_ROW_36_258
*1101 TAP_TAPCELL_ROW_36_259
*1102 TAP_TAPCELL_ROW_36_260
*1103 TAP_TAPCELL_ROW_36_261
*1104 TAP_TAPCELL_ROW_37_262
*1105 TAP_TAPCELL_ROW_37_263
*1106 TAP_TAPCELL_ROW_37_264
*1107 TAP_TAPCELL_ROW_37_265
*1108 TAP_TAPCELL_ROW_38_266
*1109 TAP_TAPCELL_ROW_38_267
*1110 TAP_TAPCELL_ROW_38_268
*1111 TAP_TAPCELL_ROW_38_269
*1112 TAP_TAPCELL_ROW_38_270
*1113 TAP_TAPCELL_ROW_39_271
*1114 TAP_TAPCELL_ROW_39_272
*1115 TAP_TAPCELL_ROW_39_273
*1116 TAP_TAPCELL_ROW_39_274
*1117 TAP_TAPCELL_ROW_3_109
*1118 TAP_TAPCELL_ROW_3_110
*1119 TAP_TAPCELL_ROW_3_111
*1120 TAP_TAPCELL_ROW_3_112
*1121 TAP_TAPCELL_ROW_40_275
*1122 TAP_TAPCELL_ROW_40_276
*1123 TAP_TAPCELL_ROW_40_277
*1124 TAP_TAPCELL_ROW_40_278
*1125 TAP_TAPCELL_ROW_40_279
*1126 TAP_TAPCELL_ROW_41_280
*1127 TAP_TAPCELL_ROW_41_281
*1128 TAP_TAPCELL_ROW_41_282
*1129 TAP_TAPCELL_ROW_41_283
*1130 TAP_TAPCELL_ROW_42_284
*1131 TAP_TAPCELL_ROW_42_285
*1132 TAP_TAPCELL_ROW_42_286
*1133 TAP_TAPCELL_ROW_42_287
*1134 TAP_TAPCELL_ROW_42_288
*1135 TAP_TAPCELL_ROW_43_289
*1136 TAP_TAPCELL_ROW_43_290
*1137 TAP_TAPCELL_ROW_43_291
*1138 TAP_TAPCELL_ROW_43_292
*1139 TAP_TAPCELL_ROW_44_293
*1140 TAP_TAPCELL_ROW_44_294
*1141 TAP_TAPCELL_ROW_44_295
*1142 TAP_TAPCELL_ROW_44_296
*1143 TAP_TAPCELL_ROW_44_297
*1144 TAP_TAPCELL_ROW_44_298
*1145 TAP_TAPCELL_ROW_44_299
*1146 TAP_TAPCELL_ROW_44_300
*1147 TAP_TAPCELL_ROW_44_301
*1148 TAP_TAPCELL_ROW_44_302
*1149 TAP_TAPCELL_ROW_4_113
*1150 TAP_TAPCELL_ROW_4_114
*1151 TAP_TAPCELL_ROW_4_115
*1152 TAP_TAPCELL_ROW_4_116
*1153 TAP_TAPCELL_ROW_4_117
*1154 TAP_TAPCELL_ROW_5_118
*1155 TAP_TAPCELL_ROW_5_119
*1156 TAP_TAPCELL_ROW_5_120
*1157 TAP_TAPCELL_ROW_5_121
*1158 TAP_TAPCELL_ROW_6_122
*1159 TAP_TAPCELL_ROW_6_123
*1160 TAP_TAPCELL_ROW_6_124
*1161 TAP_TAPCELL_ROW_6_125
*1162 TAP_TAPCELL_ROW_6_126
*1163 TAP_TAPCELL_ROW_7_127
*1164 TAP_TAPCELL_ROW_7_128
*1165 TAP_TAPCELL_ROW_7_129
*1166 TAP_TAPCELL_ROW_7_130
*1167 TAP_TAPCELL_ROW_8_131
*1168 TAP_TAPCELL_ROW_8_132
*1169 TAP_TAPCELL_ROW_8_133
*1170 TAP_TAPCELL_ROW_8_134
*1171 TAP_TAPCELL_ROW_8_135
*1172 TAP_TAPCELL_ROW_9_136
*1173 TAP_TAPCELL_ROW_9_137
*1174 TAP_TAPCELL_ROW_9_138
*1175 TAP_TAPCELL_ROW_9_139
*1176 _103_
*1177 _104_
*1178 _105_
*1179 _106_
*1180 _107_
*1181 _108_
*1182 _109_
*1183 _110_
*1184 _111_
*1185 _112_
*1186 _113_
*1187 _114_
*1188 _115_
*1189 _116_
*1190 _117_
*1191 _118_
*1192 _119_
*1193 _120_
*1194 _121_
*1195 _122_
*1196 _123_
*1197 _124_
*1198 _125_
*1199 _126_
*1200 _127_
*1201 _128_
*1202 _129_
*1203 _130_
*1204 _131_
*1205 _132_
*1206 _133_
*1207 _134_
*1208 _135_
*1209 _136_
*1210 _137_
*1211 _138_
*1212 _139_
*1213 _140_
*1214 _141_
*1215 _142_
*1216 _143_
*1217 _144_
*1218 _145_
*1219 _146_
*1220 _147_
*1221 _148_
*1222 _149_
*1223 _150_
*1224 _151_
*1225 _152_
*1226 _153_
*1227 _154_
*1228 _155_
*1229 _156_
*1230 _157_
*1231 _158_
*1232 _159_
*1233 _160_
*1234 _161_
*1235 _162_
*1236 _163_
*1237 _164_
*1238 _165_
*1239 _166_
*1240 _167_
*1241 _168_
*1242 _169_
*1243 _170_
*1244 _171_
*1245 _172_
*1246 _173_
*1247 _174_
*1248 _175_
*1249 _176_
*1250 _177_
*1251 _178_
*1252 _179_
*1253 _180_
*1254 _181_
*1255 _182_
*1256 _183_
*1257 _184_
*1258 _185_
*1259 _186_
*1260 _187_
*1261 _188_
*1262 _189_
*1263 _190_
*1264 _191_
*1265 _192_
*1266 _193_
*1267 _194_
*1268 _195_
*1269 _196_
*1270 _197_
*1271 _198_
*1272 _199_
*1273 _200_
*1274 _201_
*1275 _202_
*1276 _203_
*1277 _204_
*1278 _205_
*1279 _206_
*1280 _207_
*1281 _208_
*1282 _209_
*1283 _210_
*1284 _211_
*1285 _212_
*1286 _213_
*1287 _214_
*1288 _215_
*1289 _216_
*1290 _217_
*1291 _218_
*1292 _219_
*1293 _220_
*1294 _221_
*1295 _222_
*1296 _223_
*1297 _224_
*1298 _225_
*1299 _226_
*1300 _227_
*1301 _228_
*1302 _229_
*1303 _230_
*1304 _233_
*1305 _234_
*1306 _235_
*1307 clkbuf_0_clk
*1308 clkbuf_1_0__f_clk
*1309 clkbuf_1_1__f_clk
*1310 ita24_25
*1311 ita24_26
*1312 output1
*1313 output10
*1314 output11
*1315 output12
*1316 output13
*1317 output14
*1318 output15
*1319 output16
*1320 output17
*1321 output18
*1322 output19
*1323 output2
*1324 output20
*1325 output21
*1326 output22
*1327 output23
*1328 output24
*1329 output3
*1330 output4
*1331 output5
*1332 output6
*1333 output7
*1334 output8
*1335 output9

*PORTS
clk I
segm[0] O
segm[10] O
segm[11] O
segm[12] O
segm[13] O
segm[1] O
segm[2] O
segm[3] O
segm[4] O
segm[5] O
segm[6] O
segm[7] O
segm[8] O
segm[9] O
sel[0] O
sel[10] O
sel[11] O
sel[1] O
sel[2] O
sel[3] O
sel[4] O
sel[5] O
sel[6] O
sel[7] O
sel[8] O
sel[9] O

*D_NET *1 0.0142778
*CONN
*P clk I
*I *1307:I I *D gf180mcu_fd_sc_mcu7t5v0__clkbuf_16
*I *189:I I *D gf180mcu_fd_sc_mcu7t5v0__antenna
*CAP
1 clk 0.00223791
2 *1307:I 0.000177097
3 *189:I 0
4 *1:13 0.00208584
5 *1:11 0.00414666
6 *1307:I *1195:A1 7.05624e-05
7 *1307:I *1229:A1 0.000408707
8 *1307:I *55:12 0.000408707
9 *1307:I *55:22 8.68176e-05
10 *1307:I *73:16 1.823e-05
11 *1307:I *102:25 0.000141003
12 *1307:I *109:16 0.00030542
13 *1:13 *1191:A1 0.000331761
14 *1:13 *1191:A2 1.51772e-05
15 *1:13 *1212:A1 0.000224151
16 *1:13 *1227:B2 8.25022e-05
17 *1:13 *1243:B1 2.19671e-06
18 *1:13 *1279:D 0.000426779
19 *1:13 *1328:I 0.00181424
20 *1:13 *55:22 5.0164e-05
21 *1:13 *73:16 0.000859206
22 *1:13 *102:25 0.000270931
23 *1:13 *109:16 0.000113773
*RES
1 clk *1:11 25.796 
2 *1:11 *1:13 24.856 
3 *1:13 *189:I 9 
4 *1:13 *1307:I 12.12 
*END

*D_NET *2 0.00218492
*CONN
*P segm[0] O
*I *1310:ZN O *D gf180mcu_fd_sc_mcu7t5v0__tiel
*CAP
1 segm[0] 0.000866276
2 *1310:ZN 0.000866276
3 segm[0] sel[7] 0.000443542
4 segm[0] sel[8] 8.82081e-06
*RES
1 *1310:ZN segm[0] 22.184 
*END

*D_NET *3 0.00103202
*CONN
*P segm[10] O
*I *1312:Z O *D gf180mcu_fd_sc_mcu7t5v0__buf_8
*CAP
1 segm[10] 0.000464215
2 *1312:Z 0.000464215
3 segm[10] segm[6] 0.00010359
*RES
1 *1312:Z segm[10] 12.692 
*END

*D_NET *4 0.00225953
*CONN
*P segm[11] O
*I *1323:Z O *D gf180mcu_fd_sc_mcu7t5v0__buf_8
*CAP
1 segm[11] 0.00110578
2 *1323:Z 0.00110578
3 segm[11] *1316:I 4.79815e-05
*RES
1 *1323:Z segm[11] 22.184 
*END

*D_NET *5 0.00106515
*CONN
*P segm[12] O
*I *1329:Z O *D gf180mcu_fd_sc_mcu7t5v0__buf_8
*CAP
1 segm[12] 0.000532574
2 *1329:Z 0.000532574
*RES
1 *1329:Z segm[12] 13.108 
*END

*D_NET *6 0.00245992
*CONN
*P segm[13] O
*I *1330:Z O *D gf180mcu_fd_sc_mcu7t5v0__buf_8
*CAP
1 segm[13] 0.00122996
2 *1330:Z 0.00122996
*RES
1 *1330:Z segm[13] 23.016 
*END

*D_NET *7 0.00053657
*CONN
*P segm[1] O
*I *1331:Z O *D gf180mcu_fd_sc_mcu7t5v0__buf_8
*CAP
1 segm[1] 0.000197781
2 *1331:Z 0.000197781
3 segm[1] segm[4] 6.8994e-05
4 segm[1] sel[6] 7.20128e-05
*RES
1 *1331:Z segm[1] 11.34 
*END

*D_NET *8 0.000891628
*CONN
*P segm[2] O
*I *1332:Z O *D gf180mcu_fd_sc_mcu7t5v0__buf_8
*CAP
1 segm[2] 0.000415502
2 *1332:Z 0.000415502
3 segm[2] sel[1] 6.0623e-05
*RES
1 *1332:Z segm[2] 12.276 
*END

*D_NET *9 0.00132986
*CONN