*SPEF "ieee 1481-1999"
*DESIGN "ita27"
*DATE "11:11:11 Fri 11 11, 1111"
*VENDOR "OpenRCX"
*PROGRAM "Parallel Extraction"
*VERSION "1.0"
*DESIGN_FLOW "NAME_SCOPE LOCAL" "PIN_CAP NONE"
*DIVIDER /
*DELIMITER :
*BUS_DELIMITER []
*T_UNIT 1 NS
*C_UNIT 1 PF
*R_UNIT 1 OHM
*L_UNIT 1 HENRY

*NAME_MAP
*1 clk
*2 net24
*3 segm[10]
*4 segm[11]
*5 segm[12]
*6 segm[13]
*7 segm[1]
*8 segm[2]
*9 net25
*10 segm[4]
*11 net26
*12 segm[6]
*13 segm[7]
*14 segm[8]
*15 segm[9]
*16 sel[0]
*17 sel[10]
*18 sel[11]
*19 sel[1]
*20 sel[2]
*21 sel[3]
*22 sel[4]
*23 sel[5]
*24 sel[6]
*25 sel[7]
*26 sel[8]
*27 sel[9]
*30 _000_
*31 _001_
*32 _002_
*33 _003_
*34 _004_
*35 _005_
*36 _006_
*37 _007_
*38 _008_
*39 _009_
*40 _010_
*41 _011_
*42 _012_
*43 _013_
*44 _014_
*45 _015_
*46 _016_
*47 _017_
*48 _018_
*49 _019_
*50 _020_
*51 _021_
*52 _022_
*53 _023_
*54 _024_
*55 _025_
*56 _026_
*57 _027_
*58 _028_
*59 _029_
*60 _030_
*61 _031_
*62 _032_
*63 _033_
*64 _034_
*65 _035_
*66 _036_
*67 _037_
*68 _038_
*69 _039_
*70 _040_
*71 _041_
*72 _042_
*73 _043_
*74 _044_
*75 _045_
*76 _046_
*77 _047_
*78 _048_
*79 _049_
*80 _050_
*81 _051_
*82 _052_
*83 _053_
*84 _054_
*85 _055_
*86 _056_
*87 _057_
*88 _058_
*89 _059_
*90 _060_
*91 _061_
*92 _062_
*93 _063_
*94 _064_
*95 _065_
*96 _066_
*97 _067_
*98 _068_
*99 _069_
*100 _070_
*101 _071_
*102 _072_
*103 _073_
*104 _074_
*105 _075_
*106 _076_
*107 _077_
*108 _078_
*109 _079_
*110 _080_
*111 _081_
*112 _082_
*113 _083_
*114 _084_
*115 _085_
*116 _086_
*117 _087_
*118 _088_
*119 _089_
*120 _090_
*121 _091_
*122 _092_
*123 _093_
*124 _094_
*125 _095_
*126 _096_
*127 _097_
*128 _098_
*129 _099_
*130 _100_
*131 _101_
*132 _102_
*133 _103_
*134 _104_
*135 clknet_0_clk
*136 clknet_1_0__leaf_clk
*137 clknet_1_1__leaf_clk
*138 dut27\.count\[0\]
*139 dut27\.count\[1\]
*140 dut27\.count\[2\]
*141 dut27\.count\[3\]
*142 net1
*143 net10
*144 net11
*145 net12
*146 net13
*147 net14
*148 net15
*149 net16
*150 net17
*151 net18
*152 net19
*153 net2
*154 net20
*155 net21
*156 net22
*157 net23
*158 net3
*159 net4
*160 net5
*161 net6
*162 net7
*163 net8
*164 net9
*165 ANTENNA__132__A2
*166 ANTENNA__142__A2
*167 ANTENNA__183__A2
*168 ANTENNA__209__A2
*169 ANTENNA__210__CLK
*170 ANTENNA__211__CLK
*171 ANTENNA__212__CLK
*172 ANTENNA__213__CLK
*173 ANTENNA__214__CLK
*174 ANTENNA__215__CLK
*175 ANTENNA__216__CLK
*176 ANTENNA__217__CLK
*177 ANTENNA__218__CLK
*178 ANTENNA__219__CLK
*179 ANTENNA__220__CLK
*180 ANTENNA__221__CLK
*181 ANTENNA__222__CLK
*182 ANTENNA__223__CLK
*183 ANTENNA__224__CLK
*184 ANTENNA__225__CLK
*185 ANTENNA__226__CLK
*186 ANTENNA__227__CLK
*187 ANTENNA__228__CLK
*188 ANTENNA__229__CLK
*189 ANTENNA__230__CLK
*190 ANTENNA__231__CLK
*191 ANTENNA__232__CLK
*192 ANTENNA__233__CLK
*193 ANTENNA__234__CLK
*194 ANTENNA_clkbuf_0_clk_I
*195 FILLER_0_0_104
*196 FILLER_0_0_138
*197 FILLER_0_0_146
*198 FILLER_0_0_150
*199 FILLER_0_0_155
*200 FILLER_0_0_163
*201 FILLER_0_0_167
*202 FILLER_0_0_169
*203 FILLER_0_0_172
*204 FILLER_0_0_176
*205 FILLER_0_0_2
*206 FILLER_0_0_206
*207 FILLER_0_0_240
*208 FILLER_0_0_274
*209 FILLER_0_0_308
*210 FILLER_0_0_342
*211 FILLER_0_0_346
*212 FILLER_0_0_348
*213 FILLER_0_0_36
*214 FILLER_0_0_70
*215 FILLER_0_10_101
*216 FILLER_0_10_107
*217 FILLER_0_10_171
*218 FILLER_0_10_177
*219 FILLER_0_10_2
*220 FILLER_0_10_241
*221 FILLER_0_10_247
*222 FILLER_0_10_311
*223 FILLER_0_10_317
*224 FILLER_0_10_34
*225 FILLER_0_10_37
*226 FILLER_0_11_136
*227 FILLER_0_11_142
*228 FILLER_0_11_2
*229 FILLER_0_11_206
*230 FILLER_0_11_212
*231 FILLER_0_11_276
*232 FILLER_0_11_282
*233 FILLER_0_11_346
*234 FILLER_0_11_348
*235 FILLER_0_11_66
*236 FILLER_0_11_72
*237 FILLER_0_12_101
*238 FILLER_0_12_107
*239 FILLER_0_12_171
*240 FILLER_0_12_177
*241 FILLER_0_12_2
*242 FILLER_0_12_241
*243 FILLER_0_12_247
*244 FILLER_0_12_311
*245 FILLER_0_12_317
*246 FILLER_0_12_34
*247 FILLER_0_12_37
*248 FILLER_0_13_136
*249 FILLER_0_13_142
*250 FILLER_0_13_158
*251 FILLER_0_13_191
*252 FILLER_0_13_195
*253 FILLER_0_13_2
*254 FILLER_0_13_203
*255 FILLER_0_13_207
*256 FILLER_0_13_209
*257 FILLER_0_13_212
*258 FILLER_0_13_220
*259 FILLER_0_13_252
*260 FILLER_0_13_268
*261 FILLER_0_13_276
*262 FILLER_0_13_282
*263 FILLER_0_13_346
*264 FILLER_0_13_348
*265 FILLER_0_13_66
*266 FILLER_0_13_72
*267 FILLER_0_14_101
*268 FILLER_0_14_107
*269 FILLER_0_14_123
*270 FILLER_0_14_131
*271 FILLER_0_14_164
*272 FILLER_0_14_168
*273 FILLER_0_14_172
*274 FILLER_0_14_174
*275 FILLER_0_14_177
*276 FILLER_0_14_184
*277 FILLER_0_14_192
*278 FILLER_0_14_196
*279 FILLER_0_14_2
*280 FILLER_0_14_227
*281 FILLER_0_14_231
*282 FILLER_0_14_239
*283 FILLER_0_14_243
*284 FILLER_0_14_247
*285 FILLER_0_14_311
*286 FILLER_0_14_317
*287 FILLER_0_14_34
*288 FILLER_0_14_37
*289 FILLER_0_15_136
*290 FILLER_0_15_142
*291 FILLER_0_15_158
*292 FILLER_0_15_195
*293 FILLER_0_15_199
*294 FILLER_0_15_2
*295 FILLER_0_15_207
*296 FILLER_0_15_209
*297 FILLER_0_15_224
*298 FILLER_0_15_256
*299 FILLER_0_15_272
*300 FILLER_0_15_282
*301 FILLER_0_15_346
*302 FILLER_0_15_348
*303 FILLER_0_15_66
*304 FILLER_0_15_72
*305 FILLER_0_16_101
*306 FILLER_0_16_107
*307 FILLER_0_16_139
*308 FILLER_0_16_155
*309 FILLER_0_16_163
*310 FILLER_0_16_171
*311 FILLER_0_16_177
*312 FILLER_0_16_193
*313 FILLER_0_16_197
*314 FILLER_0_16_199
*315 FILLER_0_16_2
*316 FILLER_0_16_229
*317 FILLER_0_16_233
*318 FILLER_0_16_241
*319 FILLER_0_16_247
*320 FILLER_0_16_311
*321 FILLER_0_16_317
*322 FILLER_0_16_34
*323 FILLER_0_16_37
*324 FILLER_0_17_104
*325 FILLER_0_17_108
*326 FILLER_0_17_110
*327 FILLER_0_17_142
*328 FILLER_0_17_146
*329 FILLER_0_17_150
*330 FILLER_0_17_168
*331 FILLER_0_17_172
*332 FILLER_0_17_180
*333 FILLER_0_17_196
*334 FILLER_0_17_2
*335 FILLER_0_17_204
*336 FILLER_0_17_208
*337 FILLER_0_17_222
*338 FILLER_0_17_230
*339 FILLER_0_17_234
*340 FILLER_0_17_239
*341 FILLER_0_17_271
*342 FILLER_0_17_279
*343 FILLER_0_17_282
*344 FILLER_0_17_314
*345 FILLER_0_17_322
*346 FILLER_0_17_66
*347 FILLER_0_17_72
*348 FILLER_0_18_103
*349 FILLER_0_18_107
*350 FILLER_0_18_124
*351 FILLER_0_18_156
*352 FILLER_0_18_172
*353 FILLER_0_18_174
*354 FILLER_0_18_189
*355 FILLER_0_18_193
*356 FILLER_0_18_195
*357 FILLER_0_18_247
*358 FILLER_0_18_251
*359 FILLER_0_18_28
*360 FILLER_0_18_317
*361 FILLER_0_18_32
*362 FILLER_0_18_321
*363 FILLER_0_18_34
*364 FILLER_0_18_37
*365 FILLER_0_18_69
*366 FILLER_0_18_85
*367 FILLER_0_18_93
*368 FILLER_0_19_121
*369 FILLER_0_19_130
*370 FILLER_0_19_134
*371 FILLER_0_19_148
*372 FILLER_0_19_158
*373 FILLER_0_19_162
*374 FILLER_0_19_172
*375 FILLER_0_19_180
*376 FILLER_0_19_194
*377 FILLER_0_19_198
*378 FILLER_0_19_206
*379 FILLER_0_19_223
*380 FILLER_0_19_254
*381 FILLER_0_19_270
*382 FILLER_0_19_278
*383 FILLER_0_19_28
*384 FILLER_0_19_282
*385 FILLER_0_19_346
*386 FILLER_0_19_348
*387 FILLER_0_19_60
*388 FILLER_0_19_68
*389 FILLER_0_19_72
*390 FILLER_0_19_80
*391 FILLER_0_1_136
*392 FILLER_0_1_142
*393 FILLER_0_1_150
*394 FILLER_0_1_154
*395 FILLER_0_1_2
*396 FILLER_0_1_207
*397 FILLER_0_1_209
*398 FILLER_0_1_212
*399 FILLER_0_1_220
*400 FILLER_0_1_222
*401 FILLER_0_1_249
*402 FILLER_0_1_265
*403 FILLER_0_1_273
*404 FILLER_0_1_277
*405 FILLER_0_1_279
*406 FILLER_0_1_282
*407 FILLER_0_1_346
*408 FILLER_0_1_348
*409 FILLER_0_1_66
*410 FILLER_0_1_72
*411 FILLER_0_20_101
*412 FILLER_0_20_107
*413 FILLER_0_20_111
*414 FILLER_0_20_125
*415 FILLER_0_20_135
*416 FILLER_0_20_139
*417 FILLER_0_20_153
*418 FILLER_0_20_170
*419 FILLER_0_20_174
*420 FILLER_0_20_184
*421 FILLER_0_20_2
*422 FILLER_0_20_234
*423 FILLER_0_20_238
*424 FILLER_0_20_240
*425 FILLER_0_20_247
*426 FILLER_0_20_311
*427 FILLER_0_20_317
*428 FILLER_0_20_34
*429 FILLER_0_20_37
*430 FILLER_0_21_107
*431 FILLER_0_21_111
*432 FILLER_0_21_115
*433 FILLER_0_21_117
*434 FILLER_0_21_131
*435 FILLER_0_21_133
*436 FILLER_0_21_142
*437 FILLER_0_21_185
*438 FILLER_0_21_187
*439 FILLER_0_21_2
*440 FILLER_0_21_202
*441 FILLER_0_21_204
*442 FILLER_0_21_224
*443 FILLER_0_21_226
*444 FILLER_0_21_256
*445 FILLER_0_21_272
*446 FILLER_0_21_282
*447 FILLER_0_21_314
*448 FILLER_0_21_322
*449 FILLER_0_21_66
*450 FILLER_0_21_72
*451 FILLER_0_22_103
*452 FILLER_0_22_177
*453 FILLER_0_22_2
*454 FILLER_0_22_239
*455 FILLER_0_22_243
*456 FILLER_0_22_247
*457 FILLER_0_22_311
*458 FILLER_0_22_317
*459 FILLER_0_22_333
*460 FILLER_0_22_34
*461 FILLER_0_22_341
*462 FILLER_0_22_37
*463 FILLER_0_22_69
*464 FILLER_0_22_85
*465 FILLER_0_22_93
*466 FILLER_0_22_99
*467 FILLER_0_23_117
*468 FILLER_0_23_137
*469 FILLER_0_23_139
*470 FILLER_0_23_142
*471 FILLER_0_23_208
*472 FILLER_0_23_212
*473 FILLER_0_23_216
*474 FILLER_0_23_224
*475 FILLER_0_23_227
*476 FILLER_0_23_243
*477 FILLER_0_23_245
*478 FILLER_0_23_250
*479 FILLER_0_23_266
*480 FILLER_0_23_274
*481 FILLER_0_23_278
*482 FILLER_0_23_28
*483 FILLER_0_23_282
*484 FILLER_0_23_314
*485 FILLER_0_23_322
*486 FILLER_0_23_60
*487 FILLER_0_23_68
*488 FILLER_0_23_72
*489 FILLER_0_24_101
*490 FILLER_0_24_107
*491 FILLER_0_24_111
*492 FILLER_0_24_121
*493 FILLER_0_24_223
*494 FILLER_0_24_239
*495 FILLER_0_24_243
*496 FILLER_0_24_247
*497 FILLER_0_24_28
*498 FILLER_0_24_311
*499 FILLER_0_24_317
*500 FILLER_0_24_32
*501 FILLER_0_24_34
*502 FILLER_0_24_37
*503 FILLER_0_25_103
*504 FILLER_0_25_119
*505 FILLER_0_25_123
*506 FILLER_0_25_136
*507 FILLER_0_25_142
*508 FILLER_0_25_146
*509 FILLER_0_25_172
*510 FILLER_0_25_192
*511 FILLER_0_25_2
*512 FILLER_0_25_202
*513 FILLER_0_25_212
*514 FILLER_0_25_253
*515 FILLER_0_25_269
*516 FILLER_0_25_277
*517 FILLER_0_25_279
*518 FILLER_0_25_282
*519 FILLER_0_25_346
*520 FILLER_0_25_348
*521 FILLER_0_25_66
*522 FILLER_0_25_72
*523 FILLER_0_25_88
*524 FILLER_0_25_96
*525 FILLER_0_26_104
*526 FILLER_0_26_112
*527 FILLER_0_26_145
*528 FILLER_0_26_183
*529 FILLER_0_26_191
*530 FILLER_0_26_193
*531 FILLER_0_26_223
*532 FILLER_0_26_227
*533 FILLER_0_26_231
*534 FILLER_0_26_233
*535 FILLER_0_26_239
*536 FILLER_0_26_243
*537 FILLER_0_26_247
*538 FILLER_0_26_28
*539 FILLER_0_26_311
*540 FILLER_0_26_317
*541 FILLER_0_26_32
*542 FILLER_0_26_321
*543 FILLER_0_26_34
*544 FILLER_0_26_37
*545 FILLER_0_26_69
*546 FILLER_0_26_73
*547 FILLER_0_27_106
*548 FILLER_0_27_138
*549 FILLER_0_27_142
*550 FILLER_0_27_150
*551 FILLER_0_27_152
*552 FILLER_0_27_171
*553 FILLER_0_27_187
*554 FILLER_0_27_191
*555 FILLER_0_27_198
*556 FILLER_0_27_2
*557 FILLER_0_27_208
*558 FILLER_0_27_212
*559 FILLER_0_27_216
*560 FILLER_0_27_255
*561 FILLER_0_27_271
*562 FILLER_0_27_279
*563 FILLER_0_27_282
*564 FILLER_0_27_346
*565 FILLER_0_27_348
*566 FILLER_0_27_66
*567 FILLER_0_27_72
*568 FILLER_0_28_101
*569 FILLER_0_28_112
*570 FILLER_0_28_116
*571 FILLER_0_28_148
*572 FILLER_0_28_156
*573 FILLER_0_28_166
*574 FILLER_0_28_174
*575 FILLER_0_28_185
*576 FILLER_0_28_2
*577 FILLER_0_28_218
*578 FILLER_0_28_222
*579 FILLER_0_28_226
*580 FILLER_0_28_238
*581 FILLER_0_28_242
*582 FILLER_0_28_244
*583 FILLER_0_28_253
*584 FILLER_0_28_285
*585 FILLER_0_28_301
*586 FILLER_0_28_309
*587 FILLER_0_28_313
*588 FILLER_0_28_317
*589 FILLER_0_28_321
*590 FILLER_0_28_34
*591 FILLER_0_28_37
*592 FILLER_0_29_119
*593 FILLER_0_29_123
*594 FILLER_0_29_127
*595 FILLER_0_29_132
*596 FILLER_0_29_151
*597 FILLER_0_29_153
*598 FILLER_0_29_160
*599 FILLER_0_29_170
*600 FILLER_0_29_186
*601 FILLER_0_29_188
*602 FILLER_0_29_208
*603 FILLER_0_29_212
*604 FILLER_0_29_214
*605 FILLER_0_29_219
*606 FILLER_0_29_251
*607 FILLER_0_29_267
*608 FILLER_0_29_275
*609 FILLER_0_29_279
*610 FILLER_0_29_28
*611 FILLER_0_29_282
*612 FILLER_0_29_314
*613 FILLER_0_29_322
*614 FILLER_0_29_60
*615 FILLER_0_29_68
*616 FILLER_0_29_72
*617 FILLER_0_29_80
*618 FILLER_0_29_84
*619 FILLER_0_2_101
*620 FILLER_0_2_107
*621 FILLER_0_2_171
*622 FILLER_0_2_177
*623 FILLER_0_2_2
*624 FILLER_0_2_241
*625 FILLER_0_2_247
*626 FILLER_0_2_311
*627 FILLER_0_2_317
*628 FILLER_0_2_34
*629 FILLER_0_2_37
*630 FILLER_0_30_101
*631 FILLER_0_30_107
*632 FILLER_0_30_111
*633 FILLER_0_30_141
*634 FILLER_0_30_145
*635 FILLER_0_30_163
*636 FILLER_0_30_171
*637 FILLER_0_30_177
*638 FILLER_0_30_193
*639 FILLER_0_30_2
*640 FILLER_0_30_226
*641 FILLER_0_30_230
*642 FILLER_0_30_238
*643 FILLER_0_30_242
*644 FILLER_0_30_244
*645 FILLER_0_30_247
*646 FILLER_0_30_311
*647 FILLER_0_30_317
*648 FILLER_0_30_34
*649 FILLER_0_30_37
*650 FILLER_0_31_136
*651 FILLER_0_31_142
*652 FILLER_0_31_144
*653 FILLER_0_31_174
*654 FILLER_0_31_183
*655 FILLER_0_31_192
*656 FILLER_0_31_2
*657 FILLER_0_31_208
*658 FILLER_0_31_212
*659 FILLER_0_31_276
*660 FILLER_0_31_282
*661 FILLER_0_31_346
*662 FILLER_0_31_348
*663 FILLER_0_31_66
*664 FILLER_0_31_72
*665 FILLER_0_32_101
*666 FILLER_0_32_107
*667 FILLER_0_32_123
*668 FILLER_0_32_160
*669 FILLER_0_32_164
*670 FILLER_0_32_172
*671 FILLER_0_32_174
*672 FILLER_0_32_2
*673 FILLER_0_32_206
*674 FILLER_0_32_210
*675 FILLER_0_32_242
*676 FILLER_0_32_244
*677 FILLER_0_32_247
*678 FILLER_0_32_311
*679 FILLER_0_32_317
*680 FILLER_0_32_34
*681 FILLER_0_32_37
*682 FILLER_0_33_136
*683 FILLER_0_33_142
*684 FILLER_0_33_2
*685 FILLER_0_33_206
*686 FILLER_0_33_212
*687 FILLER_0_33_276
*688 FILLER_0_33_282
*689 FILLER_0_33_346
*690 FILLER_0_33_348
*691 FILLER_0_33_66
*692 FILLER_0_33_72
*693 FILLER_0_34_101
*694 FILLER_0_34_107
*695 FILLER_0_34_171
*696 FILLER_0_34_177
*697 FILLER_0_34_2
*698 FILLER_0_34_241
*699 FILLER_0_34_247
*700 FILLER_0_34_311
*701 FILLER_0_34_317
*702 FILLER_0_34_34
*703 FILLER_0_34_37
*704 FILLER_0_35_136
*705 FILLER_0_35_142
*706 FILLER_0_35_2
*707 FILLER_0_35_206
*708 FILLER_0_35_212
*709 FILLER_0_35_276
*710 FILLER_0_35_282
*711 FILLER_0_35_346
*712 FILLER_0_35_348
*713 FILLER_0_35_66
*714 FILLER_0_35_72
*715 FILLER_0_36_101
*716 FILLER_0_36_107
*717 FILLER_0_36_171
*718 FILLER_0_36_177
*719 FILLER_0_36_2
*720 FILLER_0_36_241
*721 FILLER_0_36_247
*722 FILLER_0_36_311
*723 FILLER_0_36_317
*724 FILLER_0_36_34
*725 FILLER_0_36_37
*726 FILLER_0_37_136
*727 FILLER_0_37_142
*728 FILLER_0_37_2
*729 FILLER_0_37_206
*730 FILLER_0_37_212
*731 FILLER_0_37_276
*732 FILLER_0_37_282
*733 FILLER_0_37_346
*734 FILLER_0_37_348
*735 FILLER_0_37_66
*736 FILLER_0_37_72
*737 FILLER_0_38_101
*738 FILLER_0_38_107
*739 FILLER_0_38_171
*740 FILLER_0_38_177
*741 FILLER_0_38_2
*742 FILLER_0_38_241
*743 FILLER_0_38_247
*744 FILLER_0_38_311
*745 FILLER_0_38_317
*746 FILLER_0_38_34
*747 FILLER_0_38_37
*748 FILLER_0_39_136
*749 FILLER_0_39_142
*750 FILLER_0_39_2
*751 FILLER_0_39_206
*752 FILLER_0_39_212
*753 FILLER_0_39_276
*754 FILLER_0_39_282
*755 FILLER_0_39_346
*756 FILLER_0_39_348
*757 FILLER_0_39_66
*758 FILLER_0_39_72
*759 FILLER_0_3_136
*760 FILLER_0_3_142
*761 FILLER_0_3_2
*762 FILLER_0_3_206
*763 FILLER_0_3_212
*764 FILLER_0_3_276
*765 FILLER_0_3_282
*766 FILLER_0_3_346
*767 FILLER_0_3_348
*768 FILLER_0_3_66
*769 FILLER_0_3_72
*770 FILLER_0_40_101
*771 FILLER_0_40_107
*772 FILLER_0_40_171
*773 FILLER_0_40_177
*774 FILLER_0_40_2
*775 FILLER_0_40_241
*776 FILLER_0_40_247
*777 FILLER_0_40_311
*778 FILLER_0_40_317
*779 FILLER_0_40_34
*780 FILLER_0_40_37
*781 FILLER_0_41_136
*782 FILLER_0_41_142
*783 FILLER_0_41_2
*784 FILLER_0_41_206
*785 FILLER_0_41_212
*786 FILLER_0_41_276
*787 FILLER_0_41_282
*788 FILLER_0_41_346
*789 FILLER_0_41_348
*790 FILLER_0_41_66
*791 FILLER_0_41_72
*792 FILLER_0_42_101
*793 FILLER_0_42_107
*794 FILLER_0_42_171
*795 FILLER_0_42_177
*796 FILLER_0_42_2
*797 FILLER_0_42_241
*798 FILLER_0_42_247
*799 FILLER_0_42_311
*800 FILLER_0_42_317
*801 FILLER_0_42_34
*802 FILLER_0_42_37
*803 FILLER_0_43_136
*804 FILLER_0_43_142
*805 FILLER_0_43_150
*806 FILLER_0_43_154
*807 FILLER_0_43_156
*808 FILLER_0_43_183
*809 FILLER_0_43_199
*810 FILLER_0_43_2
*811 FILLER_0_43_207
*812 FILLER_0_43_209
*813 FILLER_0_43_216
*814 FILLER_0_43_243
*815 FILLER_0_43_275
*816 FILLER_0_43_279
*817 FILLER_0_43_282
*818 FILLER_0_43_346
*819 FILLER_0_43_348
*820 FILLER_0_43_66
*821 FILLER_0_43_72
*822 FILLER_0_44_104
*823 FILLER_0_44_138
*824 FILLER_0_44_165
*825 FILLER_0_44_169
*826 FILLER_0_44_198
*827 FILLER_0_44_2
*828 FILLER_0_44_202
*829 FILLER_0_44_232
*830 FILLER_0_44_236
*831 FILLER_0_44_266
*832 FILLER_0_44_270
*833 FILLER_0_44_274
*834 FILLER_0_44_308
*835 FILLER_0_44_342
*836 FILLER_0_44_346
*837 FILLER_0_44_348
*838 FILLER_0_44_36
*839 FILLER_0_44_70
*840 FILLER_0_4_101
*841 FILLER_0_4_107
*842 FILLER_0_4_171
*843 FILLER_0_4_177
*844 FILLER_0_4_2
*845 FILLER_0_4_241
*846 FILLER_0_4_247
*847 FILLER_0_4_311
*848 FILLER_0_4_317
*849 FILLER_0_4_34
*850 FILLER_0_4_37
*851 FILLER_0_5_136
*852 FILLER_0_5_142
*853 FILLER_0_5_2
*854 FILLER_0_5_206
*855 FILLER_0_5_212
*856 FILLER_0_5_276
*857 FILLER_0_5_282
*858 FILLER_0_5_346
*859 FILLER_0_5_348
*860 FILLER_0_5_66
*861 FILLER_0_5_72
*862 FILLER_0_6_101
*863 FILLER_0_6_107
*864 FILLER_0_6_171
*865 FILLER_0_6_177
*866 FILLER_0_6_2
*867 FILLER_0_6_241
*868 FILLER_0_6_247
*869 FILLER_0_6_311
*870 FILLER_0_6_317
*871 FILLER_0_6_34
*872 FILLER_0_6_37
*873 FILLER_0_7_136
*874 FILLER_0_7_142
*875 FILLER_0_7_2
*876 FILLER_0_7_206
*877 FILLER_0_7_212
*878 FILLER_0_7_276
*879 FILLER_0_7_282
*880 FILLER_0_7_346
*881 FILLER_0_7_348
*882 FILLER_0_7_66
*883 FILLER_0_7_72
*884 FILLER_0_8_101
*885 FILLER_0_8_107
*886 FILLER_0_8_171
*887 FILLER_0_8_177
*888 FILLER_0_8_2
*889 FILLER_0_8_241
*890 FILLER_0_8_247
*891 FILLER_0_8_311
*892 FILLER_0_8_317
*893 FILLER_0_8_34
*894 FILLER_0_8_37
*895 FILLER_0_9_136
*896 FILLER_0_9_142
*897 FILLER_0_9_2
*898 FILLER_0_9_206
*899 FILLER_0_9_212
*900 FILLER_0_9_276
*901 FILLER_0_9_282
*902 FILLER_0_9_346
*903 FILLER_0_9_348
*904 FILLER_0_9_66
*905 FILLER_0_9_72
*906 PHY_EDGE_ROW_0_Left_45
*907 PHY_EDGE_ROW_0_Right_0
*908 PHY_EDGE_ROW_10_Left_55
*909 PHY_EDGE_ROW_10_Right_10
*910 PHY_EDGE_ROW_11_Left_56
*911 PHY_EDGE_ROW_11_Right_11
*912 PHY_EDGE_ROW_12_Left_57
*913 PHY_EDGE_ROW_12_Right_12
*914 PHY_EDGE_ROW_13_Left_58
*915 PHY_EDGE_ROW_13_Right_13
*916 PHY_EDGE_ROW_14_Left_59
*917 PHY_EDGE_ROW_14_Right_14
*918 PHY_EDGE_ROW_15_Left_60
*919 PHY_EDGE_ROW_15_Right_15
*920 PHY_EDGE_ROW_16_Left_61
*921 PHY_EDGE_ROW_16_Right_16
*922 PHY_EDGE_ROW_17_Left_62
*923 PHY_EDGE_ROW_17_Right_17
*924 PHY_EDGE_ROW_18_Left_63
*925 PHY_EDGE_ROW_18_Right_18
*926 PHY_EDGE_ROW_19_Left_64
*927 PHY_EDGE_ROW_19_Right_19
*928 PHY_EDGE_ROW_1_Left_46
*929 PHY_EDGE_ROW_1_Right_1
*930 PHY_EDGE_ROW_20_Left_65
*931 PHY_EDGE_ROW_20_Right_20
*932 PHY_EDGE_ROW_21_Left_66
*933 PHY_EDGE_ROW_21_Right_21
*934 PHY_EDGE_ROW_22_Left_67
*935 PHY_EDGE_ROW_22_Right_22
*936 PHY_EDGE_ROW_23_Left_68
*937 PHY_EDGE_ROW_23_Right_23
*938 PHY_EDGE_ROW_24_Left_69
*939 PHY_EDGE_ROW_24_Right_24
*940 PHY_EDGE_ROW_25_Left_70
*941 PHY_EDGE_ROW_25_Right_25
*942 PHY_EDGE_ROW_26_Left_71
*943 PHY_EDGE_ROW_26_Right_26
*944 PHY_EDGE_ROW_27_Left_72
*945 PHY_EDGE_ROW_27_Right_27
*946 PHY_EDGE_ROW_28_Left_73
*947 PHY_EDGE_ROW_28_Right_28
*948 PHY_EDGE_ROW_29_Left_74
*949 PHY_EDGE_ROW_29_Right_29
*950 PHY_EDGE_ROW_2_Left_47
*951 PHY_EDGE_ROW_2_Right_2
*952 PHY_EDGE_ROW_30_Left_75
*953 PHY_EDGE_ROW_30_Right_30
*954 PHY_EDGE_ROW_31_Left_76
*955 PHY_EDGE_ROW_31_Right_31
*956 PHY_EDGE_ROW_32_Left_77
*957 PHY_EDGE_ROW_32_Right_32
*958 PHY_EDGE_ROW_33_Left_78
*959 PHY_EDGE_ROW_33_Right_33
*960 PHY_EDGE_ROW_34_Left_79
*961 PHY_EDGE_ROW_34_Right_34
*962 PHY_EDGE_ROW_35_Left_80
*963 PHY_EDGE_ROW_35_Right_35
*964 PHY_EDGE_ROW_36_Left_81
*965 PHY_EDGE_ROW_36_Right_36
*966 PHY_EDGE_ROW_37_Left_82
*967 PHY_EDGE_ROW_37_Right_37
*968 PHY_EDGE_ROW_38_Left_83
*969 PHY_EDGE_ROW_38_Right_38
*970 PHY_EDGE_ROW_39_Left_84
*971 PHY_EDGE_ROW_39_Right_39
*972 PHY_EDGE_ROW_3_Left_48
*973 PHY_EDGE_ROW_3_Right_3
*974 PHY_EDGE_ROW_40_Left_85
*975 PHY_EDGE_ROW_40_Right_40
*976 PHY_EDGE_ROW_41_Left_86
*977 PHY_EDGE_ROW_41_Right_41
*978 PHY_EDGE_ROW_42_Left_87
*979 PHY_EDGE_ROW_42_Right_42
*980 PHY_EDGE_ROW_43_Left_88
*981 PHY_EDGE_ROW_43_Right_43
*982 PHY_EDGE_ROW_44_Left_89
*983 PHY_EDGE_ROW_44_Right_44
*984 PHY_EDGE_ROW_4_Left_49
*985 PHY_EDGE_ROW_4_Right_4
*986 PHY_EDGE_ROW_5_Left_50
*987 PHY_EDGE_ROW_5_Right_5
*988 PHY_EDGE_ROW_6_Left_51
*989 PHY_EDGE_ROW_6_Right_6
*990 PHY_EDGE_ROW_7_Left_52
*991 PHY_EDGE_ROW_7_Right_7
*992 PHY_EDGE_ROW_8_Left_53
*993 PHY_EDGE_ROW_8_Right_8
*994 PHY_EDGE_ROW_9_Left_54
*995 PHY_EDGE_ROW_9_Right_9
*996 TAP_TAPCELL_ROW_0_90
*997 TAP_TAPCELL_ROW_0_91
*998 TAP_TAPCELL_ROW_0_92
*999 TAP_TAPCELL_ROW_0_93
*1000 TAP_TAPCELL_ROW_0_94
*1001 TAP_TAPCELL_ROW_0_95
*1002 TAP_TAPCELL_ROW_0_96
*1003 TAP_TAPCELL_ROW_0_97
*1004 TAP_TAPCELL_ROW_0_98
*1005 TAP_TAPCELL_ROW_0_99
*1006 TAP_TAPCELL_ROW_10_140
*1007 TAP_TAPCELL_ROW_10_141
*1008 TAP_TAPCELL_ROW_10_142
*1009 TAP_TAPCELL_ROW_10_143
*1010 TAP_TAPCELL_ROW_10_144
*1011 TAP_TAPCELL_ROW_11_145
*1012 TAP_TAPCELL_ROW_11_146
*1013 TAP_TAPCELL_ROW_11_147
*1014 TAP_TAPCELL_ROW_11_148
*1015 TAP_TAPCELL_ROW_12_149
*1016 TAP_TAPCELL_ROW_12_150
*1017 TAP_TAPCELL_ROW_12_151
*1018 TAP_TAPCELL_ROW_12_152
*1019 TAP_TAPCELL_ROW_12_153
*1020 TAP_TAPCELL_ROW_13_154
*1021 TAP_TAPCELL_ROW_13_155
*1022 TAP_TAPCELL_ROW_13_156
*1023 TAP_TAPCELL_ROW_13_157
*1024 TAP_TAPCELL_ROW_14_158
*1025 TAP_TAPCELL_ROW_14_159
*1026 TAP_TAPCELL_ROW_14_160
*1027 TAP_TAPCELL_ROW_14_161
*1028 TAP_TAPCELL_ROW_14_162
*1029 TAP_TAPCELL_ROW_15_163
*1030 TAP_TAPCELL_ROW_15_164
*1031 TAP_TAPCELL_ROW_15_165
*1032 TAP_TAPCELL_ROW_15_166
*1033 TAP_TAPCELL_ROW_16_167
*1034 TAP_TAPCELL_ROW_16_168
*1035 TAP_TAPCELL_ROW_16_169
*1036 TAP_TAPCELL_ROW_16_170
*1037 TAP_TAPCELL_ROW_16_171
*1038 TAP_TAPCELL_ROW_17_172
*1039 TAP_TAPCELL_ROW_17_173
*1040 TAP_TAPCELL_ROW_17_174
*1041 TAP_TAPCELL_ROW_17_175
*1042 TAP_TAPCELL_ROW_18_176
*1043 TAP_TAPCELL_ROW_18_177
*1044 TAP_TAPCELL_ROW_18_178
*1045 TAP_TAPCELL_ROW_18_179
*1046 TAP_TAPCELL_ROW_18_180
*1047 TAP_TAPCELL_ROW_19_181
*1048 TAP_TAPCELL_ROW_19_182
*1049 TAP_TAPCELL_ROW_19_183
*1050 TAP_TAPCELL_ROW_19_184
*1051 TAP_TAPCELL_ROW_1_100
*1052 TAP_TAPCELL_ROW_1_101
*1053 TAP_TAPCELL_ROW_1_102
*1054 TAP_TAPCELL_ROW_1_103
*1055 TAP_TAPCELL_ROW_20_185
*1056 TAP_TAPCELL_ROW_20_186
*1057 TAP_TAPCELL_ROW_20_187
*1058 TAP_TAPCELL_ROW_20_188
*1059 TAP_TAPCELL_ROW_20_189
*1060 TAP_TAPCELL_ROW_21_190
*1061 TAP_TAPCELL_ROW_21_191
*1062 TAP_TAPCELL_ROW_21_192
*1063 TAP_TAPCELL_ROW_21_193
*1064 TAP_TAPCELL_ROW_22_194
*1065 TAP_TAPCELL_ROW_22_195
*1066 TAP_TAPCELL_ROW_22_196
*1067 TAP_TAPCELL_ROW_22_197
*1068 TAP_TAPCELL_ROW_22_198
*1069 TAP_TAPCELL_ROW_23_199
*1070 TAP_TAPCELL_ROW_23_200
*1071 TAP_TAPCELL_ROW_23_201
*1072 TAP_TAPCELL_ROW_23_202
*1073 TAP_TAPCELL_ROW_24_203
*1074 TAP_TAPCELL_ROW_24_204
*1075 TAP_TAPCELL_ROW_24_205
*1076 TAP_TAPCELL_ROW_24_206
*1077 TAP_TAPCELL_ROW_24_207
*1078 TAP_TAPCELL_ROW_25_208
*1079 TAP_TAPCELL_ROW_25_209
*1080 TAP_TAPCELL_ROW_25_210
*1081 TAP_TAPCELL_ROW_25_211
*1082 TAP_TAPCELL_ROW_26_212
*1083 TAP_TAPCELL_ROW_26_213
*1084 TAP_TAPCELL_ROW_26_214
*1085 TAP_TAPCELL_ROW_26_215
*1086 TAP_TAPCELL_ROW_26_216
*1087 TAP_TAPCELL_ROW_27_217
*1088 TAP_TAPCELL_ROW_27_218
*1089 TAP_TAPCELL_ROW_27_219
*1090 TAP_TAPCELL_ROW_27_220
*1091 TAP_TAPCELL_ROW_28_221
*1092 TAP_TAPCELL_ROW_28_222
*1093 TAP_TAPCELL_ROW_28_223
*1094 TAP_TAPCELL_ROW_28_224
*1095 TAP_TAPCELL_ROW_28_225
*1096 TAP_TAPCELL_ROW_29_226
*1097 TAP_TAPCELL_ROW_29_227
*1098 TAP_TAPCELL_ROW_29_228
*1099 TAP_TAPCELL_ROW_29_229
*1100 TAP_TAPCELL_ROW_2_104
*1101 TAP_TAPCELL_ROW_2_105
*1102 TAP_TAPCELL_ROW_2_106
*1103 TAP_TAPCELL_ROW_2_107
*1104 TAP_TAPCELL_ROW_2_108
*1105 TAP_TAPCELL_ROW_30_230
*1106 TAP_TAPCELL_ROW_30_231
*1107 TAP_TAPCELL_ROW_30_232
*1108 TAP_TAPCELL_ROW_30_233
*1109 TAP_TAPCELL_ROW_30_234
*1110 TAP_TAPCELL_ROW_31_235
*1111 TAP_TAPCELL_ROW_31_236
*1112 TAP_TAPCELL_ROW_31_237
*1113 TAP_TAPCELL_ROW_31_238
*1114 TAP_TAPCELL_ROW_32_239
*1115 TAP_TAPCELL_ROW_32_240
*1116 TAP_TAPCELL_ROW_32_241
*1117 TAP_TAPCELL_ROW_32_242
*1118 TAP_TAPCELL_ROW_32_243
*1119 TAP_TAPCELL_ROW_33_244
*1120 TAP_TAPCELL_ROW_33_245
*1121 TAP_TAPCELL_ROW_33_246
*1122 TAP_TAPCELL_ROW_33_247
*1123 TAP_TAPCELL_ROW_34_248
*1124 TAP_TAPCELL_ROW_34_249
*1125 TAP_TAPCELL_ROW_34_250
*1126 TAP_TAPCELL_ROW_34_251
*1127 TAP_TAPCELL_ROW_34_252
*1128 TAP_TAPCELL_ROW_35_253
*1129 TAP_TAPCELL_ROW_35_254
*1130 TAP_TAPCELL_ROW_35_255
*1131 TAP_TAPCELL_ROW_35_256
*1132 TAP_TAPCELL_ROW_36_257
*1133 TAP_TAPCELL_ROW_36_258
*1134 TAP_TAPCELL_ROW_36_259
*1135 TAP_TAPCELL_ROW_36_260
*1136 TAP_TAPCELL_ROW_36_261
*1137 TAP_TAPCELL_ROW_37_262
*1138 TAP_TAPCELL_ROW_37_263
*1139 TAP_TAPCELL_ROW_37_264
*1140 TAP_TAPCELL_ROW_37_265
*1141 TAP_TAPCELL_ROW_38_266
*1142 TAP_TAPCELL_ROW_38_267
*1143 TAP_TAPCELL_ROW_38_268
*1144 TAP_TAPCELL_ROW_38_269
*1145 TAP_TAPCELL_ROW_38_270
*1146 TAP_TAPCELL_ROW_39_271
*1147 TAP_TAPCELL_ROW_39_272
*1148 TAP_TAPCELL_ROW_39_273
*1149 TAP_TAPCELL_ROW_39_274
*1150 TAP_TAPCELL_ROW_3_109
*1151 TAP_TAPCELL_ROW_3_110
*1152 TAP_TAPCELL_ROW_3_111
*1153 TAP_TAPCELL_ROW_3_112
*1154 TAP_TAPCELL_ROW_40_275
*1155 TAP_TAPCELL_ROW_40_276
*1156 TAP_TAPCELL_ROW_40_277
*1157 TAP_TAPCELL_ROW_40_278
*1158 TAP_TAPCELL_ROW_40_279
*1159 TAP_TAPCELL_ROW_41_280
*1160 TAP_TAPCELL_ROW_41_281
*1161 TAP_TAPCELL_ROW_41_282
*1162 TAP_TAPCELL_ROW_41_283
*1163 TAP_TAPCELL_ROW_42_284
*1164 TAP_TAPCELL_ROW_42_285
*1165 TAP_TAPCELL_ROW_42_286
*1166 TAP_TAPCELL_ROW_42_287
*1167 TAP_TAPCELL_ROW_42_288
*1168 TAP_TAPCELL_ROW_43_289
*1169 TAP_TAPCELL_ROW_43_290
*1170 TAP_TAPCELL_ROW_43_291
*1171 TAP_TAPCELL_ROW_43_292
*1172 TAP_TAPCELL_ROW_44_293
*1173 TAP_TAPCELL_ROW_44_294
*1174 TAP_TAPCELL_ROW_44_295
*1175 TAP_TAPCELL_ROW_44_296
*1176 TAP_TAPCELL_ROW_44_297
*1177 TAP_TAPCELL_ROW_44_298
*1178 TAP_TAPCELL_ROW_44_299
*1179 TAP_TAPCELL_ROW_44_300
*1180 TAP_TAPCELL_ROW_44_301
*1181 TAP_TAPCELL_ROW_44_302
*1182 TAP_TAPCELL_ROW_4_113
*1183 TAP_TAPCELL_ROW_4_114
*1184 TAP_TAPCELL_ROW_4_115
*1185 TAP_TAPCELL_ROW_4_116
*1186 TAP_TAPCELL_ROW_4_117
*1187 TAP_TAPCELL_ROW_5_118
*1188 TAP_TAPCELL_ROW_5_119
*1189 TAP_TAPCELL_ROW_5_120
*1190 TAP_TAPCELL_ROW_5_121
*1191 TAP_TAPCELL_ROW_6_122
*1192 TAP_TAPCELL_ROW_6_123
*1193 TAP_TAPCELL_ROW_6_124
*1194 TAP_TAPCELL_ROW_6_125
*1195 TAP_TAPCELL_ROW_6_126
*1196 TAP_TAPCELL_ROW_7_127
*1197 TAP_TAPCELL_ROW_7_128
*1198 TAP_TAPCELL_ROW_7_129
*1199 TAP_TAPCELL_ROW_7_130
*1200 TAP_TAPCELL_ROW_8_131
*1201 TAP_TAPCELL_ROW_8_132
*1202 TAP_TAPCELL_ROW_8_133
*1203 TAP_TAPCELL_ROW_8_134
*1204 TAP_TAPCELL_ROW_8_135
*1205 TAP_TAPCELL_ROW_9_136
*1206 TAP_TAPCELL_ROW_9_137
*1207 TAP_TAPCELL_ROW_9_138
*1208 TAP_TAPCELL_ROW_9_139
*1209 _105_
*1210 _106_
*1211 _107_
*1212 _108_
*1213 _109_
*1214 _110_
*1215 _111_
*1216 _112_
*1217 _113_
*1218 _114_
*1219 _115_
*1220 _116_
*1221 _117_
*1222 _118_
*1223 _119_
*1224 _120_
*1225 _121_
*1226 _122_
*1227 _123_
*1228 _124_
*1229 _125_
*1230 _126_
*1231 _127_
*1232 _128_
*1233 _129_
*1234 _130_
*1235 _131_
*1236 _132_
*1237 _133_
*1238 _134_
*1239 _135_
*1240 _136_
*1241 _137_
*1242 _138_
*1243 _139_
*1244 _140_
*1245 _141_
*1246 _142_
*1247 _143_
*1248 _144_
*1249 _145_
*1250 _146_
*1251 _147_
*1252 _148_
*1253 _149_
*1254 _150_
*1255 _151_
*1256 _152_
*1257 _153_
*1258 _154_
*1259 _155_
*1260 _156_
*1261 _157_
*1262 _158_
*1263 _159_
*1264 _160_
*1265 _161_
*1266 _162_
*1267 _163_
*1268 _164_
*1269 _165_
*1270 _166_
*1271 _167_
*1272 _168_
*1273 _169_
*1274 _170_
*1275 _171_
*1276 _172_
*1277 _173_
*1278 _174_
*1279 _175_
*1280 _176_
*1281 _177_
*1282 _178_
*1283 _179_
*1284 _180_
*1285 _181_
*1286 _182_
*1287 _183_
*1288 _184_
*1289 _185_
*1290 _186_
*1291 _187_
*1292 _188_
*1293 _189_
*1294 _190_
*1295 _191_
*1296 _192_
*1297 _193_
*1298 _194_
*1299 _195_
*1300 _196_
*1301 _197_
*1302 _198_
*1303 _199_
*1304 _200_
*1305 _201_
*1306 _202_
*1307 _203_
*1308 _204_
*1309 _205_
*1310 _206_
*1311 _207_
*1312 _208_
*1313 _209_
*1314 _210_
*1315 _211_
*1316 _212_
*1317 _213_
*1318 _214_
*1319 _215_
*1320 _216_
*1321 _217_
*1322 _218_
*1323 _219_
*1324 _220_
*1325 _221_
*1326 _222_
*1327 _223_
*1328 _224_
*1329 _225_
*1330 _226_
*1331 _227_
*1332 _228_
*1333 _229_
*1334 _230_
*1335 _231_
*1336 _232_
*1337 _233_
*1338 _234_
*1339 _238_
*1340 _239_
*1341 clkbuf_0_clk
*1342 clkbuf_1_0__f_clk
*1343 clkbuf_1_1__f_clk
*1344 ita27_24
*1345 ita27_25
*1346 ita27_26
*1347 output1
*1348 output10
*1349 output11
*1350 output12
*1351 output13
*1352 output14
*1353 output15
*1354 output16
*1355 output17
*1356 output18
*1357 output19
*1358 output2
*1359 output20
*1360 output21
*1361 output22
*1362 output23
*1363 output3
*1364 output4
*1365 output5
*1366 output6
*1367 output7
*1368 output8
*1369 output9

*PORTS
clk I
segm[0] O
segm[10] O
segm[11] O
segm[12] O
segm[13] O
segm[1] O
segm[2] O
segm[3] O
segm[4] O
segm[5] O
segm[6] O
segm[7] O
segm[8] O
segm[9] O
sel[0] O
sel[10] O
sel[11] O
sel[1] O
sel[2] O
sel[3] O
sel[4] O
sel[5] O
sel[6] O
sel[7] O
sel[8] O
sel[9] O

*D_NET *1 0.0188942
*CONN
*P clk I
*I *194:I I *D gf180mcu_fd_sc_mcu7t5v0__antenna
*I *1341:I I *D gf180mcu_fd_sc_mcu7t5v0__clkbuf_16
*CAP
1 clk 0.00276217
2 *194:I 0.000482975
3 *1341:I 0
4 *1:13 0.00334915
5 *1:11 0.00562834
6 *194:I *1245:A4 3.64167e-07
7 *194:I *1272:B 7.02771e-05
8 *194:I *1279:A1 0.000104092
9 *194:I *1286:A2 0.000191768
10 *194:I *1342:I 0.00146303
11 *194:I *107:25 0
12 *194:I *110:27 4.77117e-05
13 *1:11 *1351:I 3.4596e-05
14 *1:13 *1231:A2 0.000190024
15 *1:13 *1279:A1 3.646e-05
16 *1:13 *1282:A1 0.00299277
17 *1:13 *1283:A3 0.000361223
18 *1:13 *1283:A4 3.646e-05
19 *1:13 *1287:A1 0
20 *1:13 *1317:D 9.5778e-05
21 *1:13 *1351:I 0
22 *1:13 *1364:I 0
23 *1:13 *51:12 0.000828562
24 *1:13 *70:10 7.45865e-05
25 *1:13 *106:8 0
26 *1:13 *110:12 0
27 *1:13 *110:27 0.000143876
*RES
1 clk *1:11 28.084 
2 *1:11 *1:13 27.976 
3 *1:13 *1341:I 9 
4 *1:13 *194:I 14.616 
*END

*D_NET *2 0.000754046
*CONN
*P segm[0] O
*I *1344:ZN O *D gf180mcu_fd_sc_mcu7t5v0__tiel
*CAP
1 segm[0] 0.000322463
2 *1344:ZN 0.000322463
3 segm[0] segm[12] 5.61917e-05
4 segm[0] sel[6] 5.2928e-05
*RES
1 *1344:ZN segm[0] 11.652 
*END

*D_NET *3 0.000871196
*CONN
*P segm[10] O
*I *1347:Z O *D gf180mcu_fd_sc_mcu7t5v0__buf_8
*CAP
1 segm[10] 0.000435598
2 *1347:Z 0.000435598
*RES
1 *1347:Z segm[10] 12.276 
*END

*D_NET *4 0.0022124
*CONN
*P segm[11] O
*I *1358:Z O *D gf180mcu_fd_sc_mcu7t5v0__buf_8
*CAP
1 segm[11] 0.0011062
2 *1358:Z 0.0011062
*RES
1 *1358:Z segm[11] 22.184 
*END

*D_NET *5 0.000891994
*CONN
*P segm[12] O
*I *1363:Z O *D gf180mcu_fd_sc_mcu7t5v0__buf_8
*CAP