*SPEF "ieee 1481-1999"
*DESIGN "ita20"
*DATE "11:11:11 Fri 11 11, 1111"
*VENDOR "OpenRCX"
*PROGRAM "Parallel Extraction"
*VERSION "1.0"
*DESIGN_FLOW "NAME_SCOPE LOCAL" "PIN_CAP NONE"
*DIVIDER /
*DELIMITER :
*BUS_DELIMITER []
*T_UNIT 1 NS
*C_UNIT 1 PF
*R_UNIT 1 OHM
*L_UNIT 1 HENRY

*NAME_MAP
*1 clk
*2 net25
*3 segm[10]
*4 segm[11]
*5 segm[12]
*6 segm[13]
*7 segm[1]
*8 segm[2]
*9 net26
*10 segm[4]
*11 segm[5]
*12 segm[6]
*13 segm[7]
*14 segm[8]
*15 segm[9]
*16 sel[0]
*17 sel[10]
*18 sel[11]
*19 sel[1]
*20 sel[2]
*21 sel[3]
*22 sel[4]
*23 sel[5]
*24 sel[6]
*25 sel[7]
*26 sel[8]
*27 sel[9]
*30 _000_
*31 _001_
*32 _002_
*33 _003_
*34 _004_
*35 _005_
*36 _006_
*37 _007_
*38 _008_
*39 _009_
*40 _010_
*41 _011_
*42 _012_
*43 _013_
*44 _014_
*45 _015_
*46 _016_
*47 _017_
*48 _018_
*49 _019_
*50 _020_
*51 _021_
*52 _022_
*53 _023_
*54 _024_
*55 _025_
*56 _026_
*57 _027_
*58 _028_
*59 _029_
*60 _030_
*61 _031_
*62 _032_
*63 _033_
*64 _034_
*65 _035_
*66 _036_
*67 _037_
*68 _038_
*69 _039_
*70 _040_
*71 _041_
*72 _042_
*73 _043_
*74 _044_
*75 _045_
*76 _046_
*77 _047_
*78 _048_
*79 _049_
*80 _050_
*81 _051_
*82 _052_
*83 _053_
*84 _054_
*85 _055_
*86 _056_
*87 _057_
*88 _058_
*89 _059_
*90 _060_
*91 _061_
*92 _062_
*93 _063_
*94 _064_
*95 _065_
*96 _066_
*97 _067_
*98 _068_
*99 _069_
*100 _070_
*101 _071_
*102 _072_
*103 _073_
*104 _074_
*105 _075_
*106 _076_
*107 _077_
*108 _078_
*109 _079_
*110 _080_
*111 _081_
*112 _082_
*113 _083_
*114 _084_
*115 _085_
*116 _086_
*117 _087_
*118 _088_
*119 _089_
*120 _090_
*121 _091_
*122 _092_
*123 _093_
*124 _094_
*125 _095_
*126 _096_
*127 _097_
*128 _098_
*129 _099_
*130 _100_
*131 _101_
*132 _102_
*133 _103_
*134 _104_
*135 _105_
*136 _106_
*137 _107_
*138 _108_
*139 _109_
*140 clknet_0_clk
*141 clknet_1_0__leaf_clk
*142 clknet_1_1__leaf_clk
*143 dut20\.count\[0\]
*144 dut20\.count\[1\]
*145 dut20\.count\[2\]
*146 dut20\.count\[3\]
*147 net1
*148 net10
*149 net11
*150 net12
*151 net13
*152 net14
*153 net15
*154 net16
*155 net17
*156 net18
*157 net19
*158 net2
*159 net20
*160 net21
*161 net22
*162 net23
*163 net24
*164 net3
*165 net4
*166 net5
*167 net6
*168 net7
*169 net8
*170 net9
*171 ANTENNA__220__CLK
*172 ANTENNA__221__CLK
*173 ANTENNA__222__CLK
*174 ANTENNA__223__CLK
*175 ANTENNA__224__CLK
*176 ANTENNA__225__CLK
*177 ANTENNA__226__CLK
*178 ANTENNA__227__CLK
*179 ANTENNA__228__CLK
*180 ANTENNA__229__CLK
*181 ANTENNA__230__CLK
*182 ANTENNA__231__CLK
*183 ANTENNA__232__CLK
*184 ANTENNA__233__CLK
*185 ANTENNA__234__CLK
*186 ANTENNA__235__CLK
*187 ANTENNA__236__CLK
*188 ANTENNA__237__CLK
*189 ANTENNA__238__CLK
*190 ANTENNA__239__CLK
*191 ANTENNA__240__CLK
*192 ANTENNA__241__CLK
*193 ANTENNA__242__CLK
*194 ANTENNA__243__CLK
*195 ANTENNA__244__CLK
*196 ANTENNA_clkbuf_0_clk_I
*197 FILLER_0_0_104
*198 FILLER_0_0_138
*199 FILLER_0_0_142
*200 FILLER_0_0_172
*201 FILLER_0_0_176
*202 FILLER_0_0_2
*203 FILLER_0_0_232
*204 FILLER_0_0_236
*205 FILLER_0_0_240
*206 FILLER_0_0_274
*207 FILLER_0_0_308
*208 FILLER_0_0_342
*209 FILLER_0_0_346
*210 FILLER_0_0_348
*211 FILLER_0_0_36
*212 FILLER_0_0_70
*213 FILLER_0_10_101
*214 FILLER_0_10_107
*215 FILLER_0_10_171
*216 FILLER_0_10_177
*217 FILLER_0_10_2
*218 FILLER_0_10_241
*219 FILLER_0_10_247
*220 FILLER_0_10_311
*221 FILLER_0_10_317
*222 FILLER_0_10_34
*223 FILLER_0_10_37
*224 FILLER_0_11_136
*225 FILLER_0_11_142
*226 FILLER_0_11_2
*227 FILLER_0_11_206
*228 FILLER_0_11_212
*229 FILLER_0_11_276
*230 FILLER_0_11_282
*231 FILLER_0_11_346
*232 FILLER_0_11_348
*233 FILLER_0_11_66
*234 FILLER_0_11_72
*235 FILLER_0_12_101
*236 FILLER_0_12_107
*237 FILLER_0_12_139
*238 FILLER_0_12_143
*239 FILLER_0_12_177
*240 FILLER_0_12_185
*241 FILLER_0_12_189
*242 FILLER_0_12_2
*243 FILLER_0_12_219
*244 FILLER_0_12_223
*245 FILLER_0_12_239
*246 FILLER_0_12_243
*247 FILLER_0_12_247
*248 FILLER_0_12_311
*249 FILLER_0_12_317
*250 FILLER_0_12_34
*251 FILLER_0_12_37
*252 FILLER_0_13_121
*253 FILLER_0_13_125
*254 FILLER_0_13_133
*255 FILLER_0_13_137
*256 FILLER_0_13_139
*257 FILLER_0_13_179
*258 FILLER_0_13_2
*259 FILLER_0_13_209
*260 FILLER_0_13_218
*261 FILLER_0_13_250
*262 FILLER_0_13_266
*263 FILLER_0_13_274
*264 FILLER_0_13_278
*265 FILLER_0_13_282
*266 FILLER_0_13_346
*267 FILLER_0_13_348
*268 FILLER_0_13_66
*269 FILLER_0_13_72
*270 FILLER_0_13_88
*271 FILLER_0_14_101
*272 FILLER_0_14_107
*273 FILLER_0_14_115
*274 FILLER_0_14_117
*275 FILLER_0_14_171
*276 FILLER_0_14_177
*277 FILLER_0_14_2
*278 FILLER_0_14_203
*279 FILLER_0_14_207
*280 FILLER_0_14_211
*281 FILLER_0_14_219
*282 FILLER_0_14_221
*283 FILLER_0_14_228
*284 FILLER_0_14_244
*285 FILLER_0_14_247
*286 FILLER_0_14_311
*287 FILLER_0_14_317
*288 FILLER_0_14_34
*289 FILLER_0_14_37
*290 FILLER_0_15_120
*291 FILLER_0_15_124
*292 FILLER_0_15_142
*293 FILLER_0_15_155
*294 FILLER_0_15_163
*295 FILLER_0_15_193
*296 FILLER_0_15_197
*297 FILLER_0_15_2
*298 FILLER_0_15_205
*299 FILLER_0_15_209
*300 FILLER_0_15_212
*301 FILLER_0_15_245
*302 FILLER_0_15_249
*303 FILLER_0_15_265
*304 FILLER_0_15_273
*305 FILLER_0_15_277
*306 FILLER_0_15_279
*307 FILLER_0_15_282
*308 FILLER_0_15_346
*309 FILLER_0_15_348
*310 FILLER_0_15_66
*311 FILLER_0_15_72
*312 FILLER_0_15_88
*313 FILLER_0_15_90
*314 FILLER_0_16_101
*315 FILLER_0_16_107
*316 FILLER_0_16_115
*317 FILLER_0_16_129
*318 FILLER_0_16_145
*319 FILLER_0_16_149
*320 FILLER_0_16_165
*321 FILLER_0_16_173
*322 FILLER_0_16_177
*323 FILLER_0_16_185
*324 FILLER_0_16_189
*325 FILLER_0_16_198
*326 FILLER_0_16_214
*327 FILLER_0_16_222
*328 FILLER_0_16_226
*329 FILLER_0_16_228
*330 FILLER_0_16_235
*331 FILLER_0_16_243
*332 FILLER_0_16_247
*333 FILLER_0_16_28
*334 FILLER_0_16_311
*335 FILLER_0_16_317
*336 FILLER_0_16_32
*337 FILLER_0_16_321
*338 FILLER_0_16_34
*339 FILLER_0_16_37
*340 FILLER_0_17_123
*341 FILLER_0_17_133
*342 FILLER_0_17_137
*343 FILLER_0_17_139
*344 FILLER_0_17_142
*345 FILLER_0_17_146
*346 FILLER_0_17_148
*347 FILLER_0_17_155
*348 FILLER_0_17_171
*349 FILLER_0_17_175
*350 FILLER_0_17_182
*351 FILLER_0_17_198
*352 FILLER_0_17_206
*353 FILLER_0_17_212
*354 FILLER_0_17_216
*355 FILLER_0_17_248
*356 FILLER_0_17_28
*357 FILLER_0_17_282
*358 FILLER_0_17_346
*359 FILLER_0_17_348
*360 FILLER_0_17_60
*361 FILLER_0_17_68
*362 FILLER_0_17_72
*363 FILLER_0_17_88
*364 FILLER_0_18_101
*365 FILLER_0_18_107
*366 FILLER_0_18_115
*367 FILLER_0_18_122
*368 FILLER_0_18_132
*369 FILLER_0_18_136
*370 FILLER_0_18_172
*371 FILLER_0_18_174
*372 FILLER_0_18_237
*373 FILLER_0_18_241
*374 FILLER_0_18_247
*375 FILLER_0_18_28
*376 FILLER_0_18_311
*377 FILLER_0_18_317
*378 FILLER_0_18_32
*379 FILLER_0_18_321
*380 FILLER_0_18_34
*381 FILLER_0_18_37
*382 FILLER_0_19_118
*383 FILLER_0_19_122
*384 FILLER_0_19_138
*385 FILLER_0_19_150
*386 FILLER_0_19_158
*387 FILLER_0_19_162
*388 FILLER_0_19_2
*389 FILLER_0_19_209
*390 FILLER_0_19_217
*391 FILLER_0_19_223
*392 FILLER_0_19_225
*393 FILLER_0_19_255
*394 FILLER_0_19_271
*395 FILLER_0_19_279
*396 FILLER_0_19_282
*397 FILLER_0_19_314
*398 FILLER_0_19_322
*399 FILLER_0_19_66
*400 FILLER_0_19_72
*401 FILLER_0_19_88
*402 FILLER_0_1_136
*403 FILLER_0_1_142
*404 FILLER_0_1_195
*405 FILLER_0_1_2
*406 FILLER_0_1_203
*407 FILLER_0_1_207
*408 FILLER_0_1_209
*409 FILLER_0_1_238
*410 FILLER_0_1_270
*411 FILLER_0_1_278
*412 FILLER_0_1_282
*413 FILLER_0_1_346
*414 FILLER_0_1_348
*415 FILLER_0_1_66
*416 FILLER_0_1_72
*417 FILLER_0_20_101
*418 FILLER_0_20_107
*419 FILLER_0_20_123
*420 FILLER_0_20_131
*421 FILLER_0_20_147
*422 FILLER_0_20_173
*423 FILLER_0_20_2
*424 FILLER_0_20_226
*425 FILLER_0_20_244
*426 FILLER_0_20_247
*427 FILLER_0_20_260
*428 FILLER_0_20_292
*429 FILLER_0_20_308
*430 FILLER_0_20_312
*431 FILLER_0_20_314
*432 FILLER_0_20_317
*433 FILLER_0_20_321
*434 FILLER_0_20_34
*435 FILLER_0_20_37
*436 FILLER_0_21_104
*437 FILLER_0_21_112
*438 FILLER_0_21_127
*439 FILLER_0_21_136
*440 FILLER_0_21_161
*441 FILLER_0_21_163
*442 FILLER_0_21_2
*443 FILLER_0_21_209
*444 FILLER_0_21_212
*445 FILLER_0_21_276
*446 FILLER_0_21_282
*447 FILLER_0_21_314
*448 FILLER_0_21_322
*449 FILLER_0_21_66
*450 FILLER_0_21_72
*451 FILLER_0_22_101
*452 FILLER_0_22_107
*453 FILLER_0_22_177
*454 FILLER_0_22_2
*455 FILLER_0_22_236
*456 FILLER_0_22_244
*457 FILLER_0_22_247
*458 FILLER_0_22_311
*459 FILLER_0_22_317
*460 FILLER_0_22_321
*461 FILLER_0_22_34
*462 FILLER_0_22_37
*463 FILLER_0_23_114
*464 FILLER_0_23_118
*465 FILLER_0_23_155
*466 FILLER_0_23_157
*467 FILLER_0_23_2
*468 FILLER_0_23_208
*469 FILLER_0_23_225
*470 FILLER_0_23_257
*471 FILLER_0_23_273
*472 FILLER_0_23_277
*473 FILLER_0_23_279
*474 FILLER_0_23_282
*475 FILLER_0_23_346
*476 FILLER_0_23_348
*477 FILLER_0_23_66
*478 FILLER_0_23_72
*479 FILLER_0_23_80
*480 FILLER_0_23_84
*481 FILLER_0_24_103
*482 FILLER_0_24_107
*483 FILLER_0_24_116
*484 FILLER_0_24_132
*485 FILLER_0_24_141
*486 FILLER_0_24_177
*487 FILLER_0_24_2
*488 FILLER_0_24_214
*489 FILLER_0_24_247
*490 FILLER_0_24_251
*491 FILLER_0_24_317
*492 FILLER_0_24_321
*493 FILLER_0_24_34
*494 FILLER_0_24_37
*495 FILLER_0_24_69
*496 FILLER_0_24_85
*497 FILLER_0_24_93
*498 FILLER_0_25_102
*499 FILLER_0_25_121
*500 FILLER_0_25_129
*501 FILLER_0_25_133
*502 FILLER_0_25_142
*503 FILLER_0_25_144
*504 FILLER_0_25_195
*505 FILLER_0_25_2
*506 FILLER_0_25_212
*507 FILLER_0_25_245
*508 FILLER_0_25_249
*509 FILLER_0_25_265
*510 FILLER_0_25_273
*511 FILLER_0_25_277
*512 FILLER_0_25_279
*513 FILLER_0_25_282
*514 FILLER_0_25_314
*515 FILLER_0_25_322
*516 FILLER_0_25_66
*517 FILLER_0_25_72
*518 FILLER_0_25_88
*519 FILLER_0_25_96
*520 FILLER_0_26_107
*521 FILLER_0_26_111
*522 FILLER_0_26_119
*523 FILLER_0_26_123
*524 FILLER_0_26_168
*525 FILLER_0_26_181
*526 FILLER_0_26_188
*527 FILLER_0_26_204
*528 FILLER_0_26_212
*529 FILLER_0_26_216
*530 FILLER_0_26_228
*531 FILLER_0_26_232
*532 FILLER_0_26_234
*533 FILLER_0_26_241
*534 FILLER_0_26_247
*535 FILLER_0_26_28
*536 FILLER_0_26_311
*537 FILLER_0_26_317
*538 FILLER_0_26_32
*539 FILLER_0_26_321
*540 FILLER_0_26_34
*541 FILLER_0_26_37
*542 FILLER_0_26_69
*543 FILLER_0_26_73
*544 FILLER_0_26_75
*545 FILLER_0_27_100
*546 FILLER_0_27_131
*547 FILLER_0_27_133
*548 FILLER_0_27_142
*549 FILLER_0_27_150
*550 FILLER_0_27_162
*551 FILLER_0_27_166
*552 FILLER_0_27_173
*553 FILLER_0_27_189
*554 FILLER_0_27_2
*555 FILLER_0_27_206
*556 FILLER_0_27_212
*557 FILLER_0_27_276
*558 FILLER_0_27_282
*559 FILLER_0_27_346
*560 FILLER_0_27_348
*561 FILLER_0_27_66
*562 FILLER_0_27_72
*563 FILLER_0_27_88
*564 FILLER_0_27_96
*565 FILLER_0_28_101
*566 FILLER_0_28_107
*567 FILLER_0_28_123
*568 FILLER_0_28_127
*569 FILLER_0_28_142
*570 FILLER_0_28_144
*571 FILLER_0_28_151
*572 FILLER_0_28_159
*573 FILLER_0_28_168
*574 FILLER_0_28_172
*575 FILLER_0_28_174
*576 FILLER_0_28_182
*577 FILLER_0_28_2
*578 FILLER_0_28_212
*579 FILLER_0_28_216
*580 FILLER_0_28_232
*581 FILLER_0_28_240
*582 FILLER_0_28_244
*583 FILLER_0_28_247
*584 FILLER_0_28_311
*585 FILLER_0_28_317
*586 FILLER_0_28_34
*587 FILLER_0_28_37
*588 FILLER_0_29_136
*589 FILLER_0_29_151
*590 FILLER_0_29_167
*591 FILLER_0_29_175
*592 FILLER_0_29_179
*593 FILLER_0_29_199
*594 FILLER_0_29_2
*595 FILLER_0_29_207
*596 FILLER_0_29_209
*597 FILLER_0_29_216
*598 FILLER_0_29_282
*599 FILLER_0_29_346
*600 FILLER_0_29_348
*601 FILLER_0_29_66
*602 FILLER_0_29_72
*603 FILLER_0_2_101
*604 FILLER_0_2_107
*605 FILLER_0_2_171
*606 FILLER_0_2_177
*607 FILLER_0_2_2
*608 FILLER_0_2_241
*609 FILLER_0_2_247
*610 FILLER_0_2_311
*611 FILLER_0_2_317
*612 FILLER_0_2_34
*613 FILLER_0_2_37
*614 FILLER_0_30_101
*615 FILLER_0_30_107
*616 FILLER_0_30_111
*617 FILLER_0_30_150
*618 FILLER_0_30_154
*619 FILLER_0_30_165
*620 FILLER_0_30_174
*621 FILLER_0_30_177
*622 FILLER_0_30_185
*623 FILLER_0_30_189
*624 FILLER_0_30_2
*625 FILLER_0_30_220
*626 FILLER_0_30_224
*627 FILLER_0_30_240
*628 FILLER_0_30_244
*629 FILLER_0_30_247
*630 FILLER_0_30_311
*631 FILLER_0_30_317
*632 FILLER_0_30_34
*633 FILLER_0_30_37
*634 FILLER_0_31_104
*635 FILLER_0_31_120
*636 FILLER_0_31_128
*637 FILLER_0_31_146
*638 FILLER_0_31_185
*639 FILLER_0_31_191
*640 FILLER_0_31_2
*641 FILLER_0_31_207
*642 FILLER_0_31_209
*643 FILLER_0_31_212
*644 FILLER_0_31_276
*645 FILLER_0_31_282
*646 FILLER_0_31_346
*647 FILLER_0_31_348
*648 FILLER_0_31_66
*649 FILLER_0_31_72
*650 FILLER_0_32_101
*651 FILLER_0_32_107
*652 FILLER_0_32_111
*653 FILLER_0_32_142
*654 FILLER_0_32_148
*655 FILLER_0_32_152
*656 FILLER_0_32_168
*657 FILLER_0_32_172
*658 FILLER_0_32_174
*659 FILLER_0_32_2
*660 FILLER_0_32_206
*661 FILLER_0_32_210
*662 FILLER_0_32_242
*663 FILLER_0_32_244
*664 FILLER_0_32_247
*665 FILLER_0_32_311
*666 FILLER_0_32_317
*667 FILLER_0_32_34
*668 FILLER_0_32_37
*669 FILLER_0_33_136
*670 FILLER_0_33_142
*671 FILLER_0_33_2
*672 FILLER_0_33_206
*673 FILLER_0_33_212
*674 FILLER_0_33_276
*675 FILLER_0_33_282
*676 FILLER_0_33_346
*677 FILLER_0_33_348
*678 FILLER_0_33_66
*679 FILLER_0_33_72
*680 FILLER_0_34_101
*681 FILLER_0_34_107
*682 FILLER_0_34_171
*683 FILLER_0_34_177
*684 FILLER_0_34_2
*685 FILLER_0_34_241
*686 FILLER_0_34_247
*687 FILLER_0_34_311
*688 FILLER_0_34_317
*689 FILLER_0_34_34
*690 FILLER_0_34_37
*691 FILLER_0_35_136
*692 FILLER_0_35_142
*693 FILLER_0_35_2
*694 FILLER_0_35_206
*695 FILLER_0_35_212
*696 FILLER_0_35_276
*697 FILLER_0_35_282
*698 FILLER_0_35_346
*699 FILLER_0_35_348
*700 FILLER_0_35_66
*701 FILLER_0_35_72
*702 FILLER_0_36_101
*703 FILLER_0_36_107
*704 FILLER_0_36_171
*705 FILLER_0_36_177
*706 FILLER_0_36_2
*707 FILLER_0_36_241
*708 FILLER_0_36_247
*709 FILLER_0_36_311
*710 FILLER_0_36_317
*711 FILLER_0_36_34
*712 FILLER_0_36_37
*713 FILLER_0_37_136
*714 FILLER_0_37_142
*715 FILLER_0_37_2
*716 FILLER_0_37_206
*717 FILLER_0_37_212
*718 FILLER_0_37_276
*719 FILLER_0_37_282
*720 FILLER_0_37_346
*721 FILLER_0_37_348
*722 FILLER_0_37_66
*723 FILLER_0_37_72
*724 FILLER_0_38_101
*725 FILLER_0_38_107
*726 FILLER_0_38_171
*727 FILLER_0_38_177
*728 FILLER_0_38_2
*729 FILLER_0_38_241
*730 FILLER_0_38_247
*731 FILLER_0_38_311
*732 FILLER_0_38_317
*733 FILLER_0_38_34
*734 FILLER_0_38_37
*735 FILLER_0_39_136
*736 FILLER_0_39_142
*737 FILLER_0_39_2
*738 FILLER_0_39_206
*739 FILLER_0_39_212
*740 FILLER_0_39_276
*741 FILLER_0_39_282
*742 FILLER_0_39_346
*743 FILLER_0_39_348
*744 FILLER_0_39_66
*745 FILLER_0_39_72
*746 FILLER_0_3_136
*747 FILLER_0_3_142
*748 FILLER_0_3_2
*749 FILLER_0_3_206
*750 FILLER_0_3_212
*751 FILLER_0_3_276
*752 FILLER_0_3_282
*753 FILLER_0_3_346
*754 FILLER_0_3_348
*755 FILLER_0_3_66
*756 FILLER_0_3_72
*757 FILLER_0_40_101
*758 FILLER_0_40_107
*759 FILLER_0_40_171
*760 FILLER_0_40_177
*761 FILLER_0_40_2
*762 FILLER_0_40_241
*763 FILLER_0_40_247
*764 FILLER_0_40_311
*765 FILLER_0_40_317
*766 FILLER_0_40_333
*767 FILLER_0_40_34
*768 FILLER_0_40_341
*769 FILLER_0_40_37
*770 FILLER_0_41_136
*771 FILLER_0_41_142
*772 FILLER_0_41_2
*773 FILLER_0_41_206
*774 FILLER_0_41_212
*775 FILLER_0_41_276
*776 FILLER_0_41_282
*777 FILLER_0_41_346
*778 FILLER_0_41_348
*779 FILLER_0_41_66
*780 FILLER_0_41_72
*781 FILLER_0_42_101
*782 FILLER_0_42_107
*783 FILLER_0_42_171
*784 FILLER_0_42_177
*785 FILLER_0_42_2
*786 FILLER_0_42_241
*787 FILLER_0_42_247
*788 FILLER_0_42_311
*789 FILLER_0_42_317
*790 FILLER_0_42_34
*791 FILLER_0_42_37
*792 FILLER_0_43_136
*793 FILLER_0_43_172
*794 FILLER_0_43_2
*795 FILLER_0_43_204
*796 FILLER_0_43_208
*797 FILLER_0_43_212
*798 FILLER_0_43_216
*799 FILLER_0_43_243
*800 FILLER_0_43_275
*801 FILLER_0_43_279
*802 FILLER_0_43_282
*803 FILLER_0_43_346
*804 FILLER_0_43_348
*805 FILLER_0_43_66
*806 FILLER_0_43_72
*807 FILLER_0_44_104
*808 FILLER_0_44_138
*809 FILLER_0_44_142
*810 FILLER_0_44_172
*811 FILLER_0_44_174
*812 FILLER_0_44_2
*813 FILLER_0_44_201
*814 FILLER_0_44_203
*815 FILLER_0_44_232
*816 FILLER_0_44_236
*817 FILLER_0_44_240
*818 FILLER_0_44_274
*819 FILLER_0_44_308
*820 FILLER_0_44_342
*821 FILLER_0_44_346
*822 FILLER_0_44_348
*823 FILLER_0_44_36
*824 FILLER_0_44_70
*825 FILLER_0_4_101
*826 FILLER_0_4_107
*827 FILLER_0_4_171
*828 FILLER_0_4_177
*829 FILLER_0_4_2
*830 FILLER_0_4_241
*831 FILLER_0_4_247
*832 FILLER_0_4_311
*833 FILLER_0_4_317
*834 FILLER_0_4_34
*835 FILLER_0_4_37
*836 FILLER_0_5_136
*837 FILLER_0_5_142
*838 FILLER_0_5_2
*839 FILLER_0_5_206
*840 FILLER_0_5_212
*841 FILLER_0_5_276
*842 FILLER_0_5_282
*843 FILLER_0_5_346
*844 FILLER_0_5_348
*845 FILLER_0_5_66
*846 FILLER_0_5_72
*847 FILLER_0_6_101
*848 FILLER_0_6_107
*849 FILLER_0_6_171
*850 FILLER_0_6_177
*851 FILLER_0_6_2
*852 FILLER_0_6_241
*853 FILLER_0_6_247
*854 FILLER_0_6_311
*855 FILLER_0_6_317
*856 FILLER_0_6_34
*857 FILLER_0_6_37
*858 FILLER_0_7_136
*859 FILLER_0_7_142
*860 FILLER_0_7_2
*861 FILLER_0_7_206
*862 FILLER_0_7_212
*863 FILLER_0_7_276
*864 FILLER_0_7_282
*865 FILLER_0_7_346
*866 FILLER_0_7_348
*867 FILLER_0_7_66
*868 FILLER_0_7_72
*869 FILLER_0_8_101
*870 FILLER_0_8_107
*871 FILLER_0_8_171
*872 FILLER_0_8_177
*873 FILLER_0_8_2
*874 FILLER_0_8_241
*875 FILLER_0_8_247
*876 FILLER_0_8_311
*877 FILLER_0_8_317
*878 FILLER_0_8_34
*879 FILLER_0_8_37
*880 FILLER_0_9_136
*881 FILLER_0_9_142
*882 FILLER_0_9_2
*883 FILLER_0_9_206
*884 FILLER_0_9_212
*885 FILLER_0_9_276
*886 FILLER_0_9_282
*887 FILLER_0_9_346
*888 FILLER_0_9_348
*889 FILLER_0_9_66
*890 FILLER_0_9_72
*891 PHY_EDGE_ROW_0_Left_45
*892 PHY_EDGE_ROW_0_Right_0
*893 PHY_EDGE_ROW_10_Left_55
*894 PHY_EDGE_ROW_10_Right_10
*895 PHY_EDGE_ROW_11_Left_56
*896 PHY_EDGE_ROW_11_Right_11
*897 PHY_EDGE_ROW_12_Left_57
*898 PHY_EDGE_ROW_12_Right_12
*899 PHY_EDGE_ROW_13_Left_58
*900 PHY_EDGE_ROW_13_Right_13
*901 PHY_EDGE_ROW_14_Left_59
*902 PHY_EDGE_ROW_14_Right_14
*903 PHY_EDGE_ROW_15_Left_60
*904 PHY_EDGE_ROW_15_Right_15
*905 PHY_EDGE_ROW_16_Left_61
*906 PHY_EDGE_ROW_16_Right_16
*907 PHY_EDGE_ROW_17_Left_62
*908 PHY_EDGE_ROW_17_Right_17
*909 PHY_EDGE_ROW_18_Left_63
*910 PHY_EDGE_ROW_18_Right_18
*911 PHY_EDGE_ROW_19_Left_64
*912 PHY_EDGE_ROW_19_Right_19
*913 PHY_EDGE_ROW_1_Left_46
*914 PHY_EDGE_ROW_1_Right_1
*915 PHY_EDGE_ROW_20_Left_65
*916 PHY_EDGE_ROW_20_Right_20
*917 PHY_EDGE_ROW_21_Left_66
*918 PHY_EDGE_ROW_21_Right_21
*919 PHY_EDGE_ROW_22_Left_67
*920 PHY_EDGE_ROW_22_Right_22
*921 PHY_EDGE_ROW_23_Left_68
*922 PHY_EDGE_ROW_23_Right_23
*923 PHY_EDGE_ROW_24_Left_69
*924 PHY_EDGE_ROW_24_Right_24
*925 PHY_EDGE_ROW_25_Left_70
*926 PHY_EDGE_ROW_25_Right_25
*927 PHY_EDGE_ROW_26_Left_71
*928 PHY_EDGE_ROW_26_Right_26
*929 PHY_EDGE_ROW_27_Left_72
*930 PHY_EDGE_ROW_27_Right_27
*931 PHY_EDGE_ROW_28_Left_73
*932 PHY_EDGE_ROW_28_Right_28
*933 PHY_EDGE_ROW_29_Left_74
*934 PHY_EDGE_ROW_29_Right_29
*935 PHY_EDGE_ROW_2_Left_47
*936 PHY_EDGE_ROW_2_Right_2
*937 PHY_EDGE_ROW_30_Left_75
*938 PHY_EDGE_ROW_30_Right_30
*939 PHY_EDGE_ROW_31_Left_76
*940 PHY_EDGE_ROW_31_Right_31
*941 PHY_EDGE_ROW_32_Left_77
*942 PHY_EDGE_ROW_32_Right_32
*943 PHY_EDGE_ROW_33_Left_78
*944 PHY_EDGE_ROW_33_Right_33
*945 PHY_EDGE_ROW_34_Left_79
*946 PHY_EDGE_ROW_34_Right_34
*947 PHY_EDGE_ROW_35_Left_80
*948 PHY_EDGE_ROW_35_Right_35
*949 PHY_EDGE_ROW_36_Left_81
*950 PHY_EDGE_ROW_36_Right_36
*951 PHY_EDGE_ROW_37_Left_82
*952 PHY_EDGE_ROW_37_Right_37
*953 PHY_EDGE_ROW_38_Left_83
*954 PHY_EDGE_ROW_38_Right_38
*955 PHY_EDGE_ROW_39_Left_84
*956 PHY_EDGE_ROW_39_Right_39
*957 PHY_EDGE_ROW_3_Left_48
*958 PHY_EDGE_ROW_3_Right_3
*959 PHY_EDGE_ROW_40_Left_85
*960 PHY_EDGE_ROW_40_Right_40
*961 PHY_EDGE_ROW_41_Left_86
*962 PHY_EDGE_ROW_41_Right_41
*963 PHY_EDGE_ROW_42_Left_87
*964 PHY_EDGE_ROW_42_Right_42
*965 PHY_EDGE_ROW_43_Left_88
*966 PHY_EDGE_ROW_43_Right_43
*967 PHY_EDGE_ROW_44_Left_89
*968 PHY_EDGE_ROW_44_Right_44
*969 PHY_EDGE_ROW_4_Left_49
*970 PHY_EDGE_ROW_4_Right_4
*971 PHY_EDGE_ROW_5_Left_50
*972 PHY_EDGE_ROW_5_Right_5
*973 PHY_EDGE_ROW_6_Left_51
*974 PHY_EDGE_ROW_6_Right_6
*975 PHY_EDGE_ROW_7_Left_52
*976 PHY_EDGE_ROW_7_Right_7
*977 PHY_EDGE_ROW_8_Left_53
*978 PHY_EDGE_ROW_8_Right_8
*979 PHY_EDGE_ROW_9_Left_54
*980 PHY_EDGE_ROW_9_Right_9
*981 TAP_TAPCELL_ROW_0_90
*982 TAP_TAPCELL_ROW_0_91
*983 TAP_TAPCELL_ROW_0_92
*984 TAP_TAPCELL_ROW_0_93
*985 TAP_TAPCELL_ROW_0_94
*986 TAP_TAPCELL_ROW_0_95
*987 TAP_TAPCELL_ROW_0_96
*988 TAP_TAPCELL_ROW_0_97
*989 TAP_TAPCELL_ROW_0_98
*990 TAP_TAPCELL_ROW_0_99
*991 TAP_TAPCELL_ROW_10_140
*992 TAP_TAPCELL_ROW_10_141
*993 TAP_TAPCELL_ROW_10_142
*994 TAP_TAPCELL_ROW_10_143
*995 TAP_TAPCELL_ROW_10_144
*996 TAP_TAPCELL_ROW_11_145
*997 TAP_TAPCELL_ROW_11_146
*998 TAP_TAPCELL_ROW_11_147
*999 TAP_TAPCELL_ROW_11_148
*1000 TAP_TAPCELL_ROW_12_149
*1001 TAP_TAPCELL_ROW_12_150
*1002 TAP_TAPCELL_ROW_12_151
*1003 TAP_TAPCELL_ROW_12_152
*1004 TAP_TAPCELL_ROW_12_153
*1005 TAP_TAPCELL_ROW_13_154
*1006 TAP_TAPCELL_ROW_13_155
*1007 TAP_TAPCELL_ROW_13_156
*1008 TAP_TAPCELL_ROW_13_157
*1009 TAP_TAPCELL_ROW_14_158
*1010 TAP_TAPCELL_ROW_14_159
*1011 TAP_TAPCELL_ROW_14_160
*1012 TAP_TAPCELL_ROW_14_161
*1013 TAP_TAPCELL_ROW_14_162
*1014 TAP_TAPCELL_ROW_15_163
*1015 TAP_TAPCELL_ROW_15_164
*1016 TAP_TAPCELL_ROW_15_165
*1017 TAP_TAPCELL_ROW_15_166
*1018 TAP_TAPCELL_ROW_16_167
*1019 TAP_TAPCELL_ROW_16_168
*1020 TAP_TAPCELL_ROW_16_169
*1021 TAP_TAPCELL_ROW_16_170
*1022 TAP_TAPCELL_ROW_16_171
*1023 TAP_TAPCELL_ROW_17_172
*1024 TAP_TAPCELL_ROW_17_173
*1025 TAP_TAPCELL_ROW_17_174
*1026 TAP_TAPCELL_ROW_17_175
*1027 TAP_TAPCELL_ROW_18_176
*1028 TAP_TAPCELL_ROW_18_177
*1029 TAP_TAPCELL_ROW_18_178
*1030 TAP_TAPCELL_ROW_18_179
*1031 TAP_TAPCELL_ROW_18_180
*1032 TAP_TAPCELL_ROW_19_181
*1033 TAP_TAPCELL_ROW_19_182
*1034 TAP_TAPCELL_ROW_19_183
*1035 TAP_TAPCELL_ROW_19_184
*1036 TAP_TAPCELL_ROW_1_100
*1037 TAP_TAPCELL_ROW_1_101
*1038 TAP_TAPCELL_ROW_1_102
*1039 TAP_TAPCELL_ROW_1_103
*1040 TAP_TAPCELL_ROW_20_185
*1041 TAP_TAPCELL_ROW_20_186
*1042 TAP_TAPCELL_ROW_20_187
*1043 TAP_TAPCELL_ROW_20_188
*1044 TAP_TAPCELL_ROW_20_189
*1045 TAP_TAPCELL_ROW_21_190
*1046 TAP_TAPCELL_ROW_21_191
*1047 TAP_TAPCELL_ROW_21_192
*1048 TAP_TAPCELL_ROW_21_193
*1049 TAP_TAPCELL_ROW_22_194
*1050 TAP_TAPCELL_ROW_22_195
*1051 TAP_TAPCELL_ROW_22_196
*1052 TAP_TAPCELL_ROW_22_197
*1053 TAP_TAPCELL_ROW_22_198
*1054 TAP_TAPCELL_ROW_23_199
*1055 TAP_TAPCELL_ROW_23_200
*1056 TAP_TAPCELL_ROW_23_201
*1057 TAP_TAPCELL_ROW_23_202
*1058 TAP_TAPCELL_ROW_24_203
*1059 TAP_TAPCELL_ROW_24_204
*1060 TAP_TAPCELL_ROW_24_205
*1061 TAP_TAPCELL_ROW_24_206
*1062 TAP_TAPCELL_ROW_24_207
*1063 TAP_TAPCELL_ROW_25_208
*1064 TAP_TAPCELL_ROW_25_209
*1065 TAP_TAPCELL_ROW_25_210
*1066 TAP_TAPCELL_ROW_25_211
*1067 TAP_TAPCELL_ROW_26_212
*1068 TAP_TAPCELL_ROW_26_213
*1069 TAP_TAPCELL_ROW_26_214
*1070 TAP_TAPCELL_ROW_26_215
*1071 TAP_TAPCELL_ROW_26_216
*1072 TAP_TAPCELL_ROW_27_217
*1073 TAP_TAPCELL_ROW_27_218
*1074 TAP_TAPCELL_ROW_27_219
*1075 TAP_TAPCELL_ROW_27_220
*1076 TAP_TAPCELL_ROW_28_221
*1077 TAP_TAPCELL_ROW_28_222
*1078 TAP_TAPCELL_ROW_28_223
*1079 TAP_TAPCELL_ROW_28_224
*1080 TAP_TAPCELL_ROW_28_225
*1081 TAP_TAPCELL_ROW_29_226
*1082 TAP_TAPCELL_ROW_29_227
*1083 TAP_TAPCELL_ROW_29_228
*1084 TAP_TAPCELL_ROW_29_229
*1085 TAP_TAPCELL_ROW_2_104
*1086 TAP_TAPCELL_ROW_2_105
*1087 TAP_TAPCELL_ROW_2_106
*1088 TAP_TAPCELL_ROW_2_107
*1089 TAP_TAPCELL_ROW_2_108
*1090 TAP_TAPCELL_ROW_30_230
*1091 TAP_TAPCELL_ROW_30_231
*1092 TAP_TAPCELL_ROW_30_232
*1093 TAP_TAPCELL_ROW_30_233
*1094 TAP_TAPCELL_ROW_30_234
*1095 TAP_TAPCELL_ROW_31_235
*1096 TAP_TAPCELL_ROW_31_236
*1097 TAP_TAPCELL_ROW_31_237
*1098 TAP_TAPCELL_ROW_31_238
*1099 TAP_TAPCELL_ROW_32_239
*1100 TAP_TAPCELL_ROW_32_240
*1101 TAP_TAPCELL_ROW_32_241
*1102 TAP_TAPCELL_ROW_32_242
*1103 TAP_TAPCELL_ROW_32_243
*1104 TAP_TAPCELL_ROW_33_244
*1105 TAP_TAPCELL_ROW_33_245
*1106 TAP_TAPCELL_ROW_33_246
*1107 TAP_TAPCELL_ROW_33_247
*1108 TAP_TAPCELL_ROW_34_248
*1109 TAP_TAPCELL_ROW_34_249
*1110 TAP_TAPCELL_ROW_34_250
*1111 TAP_TAPCELL_ROW_34_251
*1112 TAP_TAPCELL_ROW_34_252
*1113 TAP_TAPCELL_ROW_35_253
*1114 TAP_TAPCELL_ROW_35_254
*1115 TAP_TAPCELL_ROW_35_255
*1116 TAP_TAPCELL_ROW_35_256
*1117 TAP_TAPCELL_ROW_36_257
*1118 TAP_TAPCELL_ROW_36_258
*1119 TAP_TAPCELL_ROW_36_259
*1120 TAP_TAPCELL_ROW_36_260
*1121 TAP_TAPCELL_ROW_36_261
*1122 TAP_TAPCELL_ROW_37_262
*1123 TAP_TAPCELL_ROW_37_263
*1124 TAP_TAPCELL_ROW_37_264
*1125 TAP_TAPCELL_ROW_37_265
*1126 TAP_TAPCELL_ROW_38_266
*1127 TAP_TAPCELL_ROW_38_267
*1128 TAP_TAPCELL_ROW_38_268
*1129 TAP_TAPCELL_ROW_38_269
*1130 TAP_TAPCELL_ROW_38_270
*1131 TAP_TAPCELL_ROW_39_271
*1132 TAP_TAPCELL_ROW_39_272
*1133 TAP_TAPCELL_ROW_39_273
*1134 TAP_TAPCELL_ROW_39_274
*1135 TAP_TAPCELL_ROW_3_109
*1136 TAP_TAPCELL_ROW_3_110
*1137 TAP_TAPCELL_ROW_3_111
*1138 TAP_TAPCELL_ROW_3_112
*1139 TAP_TAPCELL_ROW_40_275
*1140 TAP_TAPCELL_ROW_40_276
*1141 TAP_TAPCELL_ROW_40_277
*1142 TAP_TAPCELL_ROW_40_278
*1143 TAP_TAPCELL_ROW_40_279
*1144 TAP_TAPCELL_ROW_41_280
*1145 TAP_TAPCELL_ROW_41_281
*1146 TAP_TAPCELL_ROW_41_282
*1147 TAP_TAPCELL_ROW_41_283
*1148 TAP_TAPCELL_ROW_42_284
*1149 TAP_TAPCELL_ROW_42_285
*1150 TAP_TAPCELL_ROW_42_286
*1151 TAP_TAPCELL_ROW_42_287
*1152 TAP_TAPCELL_ROW_42_288
*1153 TAP_TAPCELL_ROW_43_289
*1154 TAP_TAPCELL_ROW_43_290
*1155 TAP_TAPCELL_ROW_43_291
*1156 TAP_TAPCELL_ROW_43_292
*1157 TAP_TAPCELL_ROW_44_293
*1158 TAP_TAPCELL_ROW_44_294
*1159 TAP_TAPCELL_ROW_44_295
*1160 TAP_TAPCELL_ROW_44_296
*1161 TAP_TAPCELL_ROW_44_297
*1162 TAP_TAPCELL_ROW_44_298
*1163 TAP_TAPCELL_ROW_44_299
*1164 TAP_TAPCELL_ROW_44_300
*1165 TAP_TAPCELL_ROW_44_301
*1166 TAP_TAPCELL_ROW_44_302
*1167 TAP_TAPCELL_ROW_4_113
*1168 TAP_TAPCELL_ROW_4_114
*1169 TAP_TAPCELL_ROW_4_115
*1170 TAP_TAPCELL_ROW_4_116
*1171 TAP_TAPCELL_ROW_4_117
*1172 TAP_TAPCELL_ROW_5_118
*1173 TAP_TAPCELL_ROW_5_119
*1174 TAP_TAPCELL_ROW_5_120
*1175 TAP_TAPCELL_ROW_5_121
*1176 TAP_TAPCELL_ROW_6_122
*1177 TAP_TAPCELL_ROW_6_123
*1178 TAP_TAPCELL_ROW_6_124
*1179 TAP_TAPCELL_ROW_6_125
*1180 TAP_TAPCELL_ROW_6_126
*1181 TAP_TAPCELL_ROW_7_127
*1182 TAP_TAPCELL_ROW_7_128
*1183 TAP_TAPCELL_ROW_7_129
*1184 TAP_TAPCELL_ROW_7_130
*1185 TAP_TAPCELL_ROW_8_131
*1186 TAP_TAPCELL_ROW_8_132
*1187 TAP_TAPCELL_ROW_8_133
*1188 TAP_TAPCELL_ROW_8_134
*1189 TAP_TAPCELL_ROW_8_135
*1190 TAP_TAPCELL_ROW_9_136
*1191 TAP_TAPCELL_ROW_9_137
*1192 TAP_TAPCELL_ROW_9_138
*1193 TAP_TAPCELL_ROW_9_139
*1194 _110_
*1195 _111_
*1196 _112_
*1197 _113_
*1198 _114_
*1199 _115_
*1200 _116_
*1201 _117_
*1202 _118_
*1203 _119_
*1204 _120_
*1205 _121_
*1206 _122_
*1207 _123_
*1208 _124_
*1209 _125_
*1210 _126_
*1211 _127_
*1212 _128_
*1213 _129_
*1214 _130_
*1215 _131_
*1216 _132_
*1217 _133_
*1218 _134_
*1219 _135_
*1220 _136_
*1221 _137_
*1222 _138_
*1223 _139_
*1224 _140_
*1225 _141_
*1226 _142_
*1227 _143_
*1228 _144_
*1229 _145_
*1230 _146_
*1231 _147_
*1232 _148_
*1233 _149_
*1234 _150_
*1235 _151_
*1236 _152_
*1237 _153_
*1238 _154_
*1239 _155_
*1240 _156_
*1241 _157_
*1242 _158_
*1243 _159_
*1244 _160_
*1245 _161_
*1246 _162_
*1247 _163_
*1248 _164_
*1249 _165_
*1250 _166_
*1251 _167_
*1252 _168_
*1253 _169_
*1254 _170_
*1255 _171_
*1256 _172_
*1257 _173_
*1258 _174_
*1259 _175_
*1260 _176_
*1261 _177_
*1262 _178_
*1263 _179_
*1264 _180_
*1265 _181_
*1266 _182_
*1267 _183_
*1268 _184_
*1269 _185_
*1270 _186_
*1271 _187_
*1272 _188_
*1273 _189_
*1274 _190_
*1275 _191_
*1276 _192_
*1277 _193_
*1278 _194_
*1279 _195_
*1280 _196_
*1281 _197_
*1282 _198_
*1283 _199_
*1284 _200_
*1285 _201_
*1286 _202_
*1287 _203_
*1288 _204_
*1289 _205_
*1290 _206_
*1291 _207_
*1292 _208_
*1293 _209_
*1294 _210_
*1295 _211_
*1296 _212_
*1297 _213_
*1298 _214_
*1299 _215_
*1300 _216_
*1301 _217_
*1302 _218_
*1303 _219_
*1304 _220_
*1305 _221_
*1306 _222_
*1307 _223_
*1308 _224_
*1309 _225_
*1310 _226_
*1311 _227_
*1312 _228_
*1313 _229_
*1314 _230_
*1315 _231_
*1316 _232_
*1317 _233_
*1318 _234_
*1319 _235_
*1320 _236_
*1321 _237_
*1322 _238_
*1323 _239_
*1324 _240_
*1325 _241_
*1326 _242_
*1327 _243_
*1328 _244_
*1329 _247_
*1330 _248_
*1331 _249_
*1332 clkbuf_0_clk
*1333 clkbuf_1_0__f_clk
*1334 clkbuf_1_1__f_clk
*1335 ita20_25
*1336 ita20_26
*1337 output1
*1338 output10
*1339 output11
*1340 output12
*1341 output13
*1342 output14
*1343 output15
*1344 output16
*1345 output17
*1346 output18
*1347 output19
*1348 output2
*1349 output20
*1350 output21
*1351 output22
*1352 output23
*1353 output24
*1354 output3
*1355 output4
*1356 output5
*1357 output6
*1358 output7
*1359 output8
*1360 output9

*PORTS
clk I
segm[0] O
segm[10] O
segm[11] O
segm[12] O
segm[13] O
segm[1] O
segm[2] O
segm[3] O
segm[4] O
segm[5] O
segm[6] O
segm[7] O
segm[8] O
segm[9] O
sel[0] O
sel[10] O
sel[11] O
sel[1] O
sel[2] O
sel[3] O
sel[4] O
sel[5] O
sel[6] O
sel[7] O
sel[8] O
sel[9] O

*D_NET *1 0.0159732
*CONN
*P clk I
*I *1332:I I *D gf180mcu_fd_sc_mcu7t5v0__clkbuf_16
*I *196:I I *D gf180mcu_fd_sc_mcu7t5v0__antenna
*CAP
1 clk 0.00237394
2 *1332:I 0.000372168
3 *196:I 0
4 *1:13 0.00277938
5 *1:11 0.00478115
6 *1332:I *1222:A1 0.000591484
7 *1332:I *1303:A2 7.91253e-05
8 *1332:I *66:19 0.000227989
9 *1332:I *114:18 0.000273596
10 *1332:I *118:29 0.000116466
11 *1332:I *119:21 0.00111351
12 *1:13 *1213:A2 0.00023699
13 *1:13 *1214:A1 0
14 *1:13 *1214:A2 0.000115856
15 *1:13 *1214:C 1.23748e-05
16 *1:13 *1215:I 0.00110406
17 *1:13 *1235:A2 0.000142261
18 *1:13 *1236:I 0
19 *1:13 *1279:A2 8.82089e-05
20 *1:13 *1351:I 0
21 *1:13 *115:19 0.000268162
22 *1:13 *118:29 0.00072589
23 *1:13 *119:21 0.000570592
*RES
1 clk *1:11 25.38 
2 *1:11 *1:13 25.064 
3 *1:13 *196:I 9 
4 *1:13 *1332:I 14.824 
*END

*D_NET *2 0.0022011
*CONN
*P segm[0] O
*I *1335:ZN O *D gf180mcu_fd_sc_mcu7t5v0__tiel
*CAP
1 segm[0] 0.00108563
2 *1335:ZN 0.00108563
3 segm[0] sel[2] 2.98389e-05
4 segm[0] *1345:I 0
*RES
1 *1335:ZN segm[0] 13.288 
*END

*D_NET *3 0.00053657
*CONN
*P segm[10] O
*I *1337:Z O *D gf180mcu_fd_sc_mcu7t5v0__buf_8
*CAP
1 segm[10] 0.000197781
2 *1337:Z 0.000197781
3 segm[10] segm[5] 7.20128e-05
4 segm[10] sel[6] 6.8994e-05
*RES
1 *1337:Z segm[10] 11.34 
*END

*D_NET *4 0.000621678
*CONN
*P segm[11] O
*I *1348:Z O *D gf180mcu_fd_sc_mcu7t5v0__buf_8
*CAP
1 segm[11] 0.000310839
2 *1348:Z 0.000310839
*RES
1 *1348:Z segm[11] 11.86 
*END

*D_NET *5 0.000879125
*CONN
*P segm[12] O
*I *1354:Z O *D gf180mcu_fd_sc_mcu7t5v0__buf_8
*CAP
1 segm[12] 0.000386258
2 *1354:Z 0.000386258
3 segm[12] segm[6] 0.000106609
*RES
1 *1354:Z segm[12] 12.276 
*END

*D_NET *6 0.00221168
*CONN
*P segm[13] O
*I *1355:Z O *D gf180mcu_fd_sc_mcu7t5v0__buf_8
*CAP
1 segm[13] 0.00101803
2 *1355:Z 0.00101803
3 segm[13] sel[10] 0.000121055
4 segm[13] *1342:I 5.45754e-05
*RES
1 *1355:Z segm[13] 22.184 