*SPEF "ieee 1481-1999"
*DESIGN "ita23"
*DATE "11:11:11 Fri 11 11, 1111"
*VENDOR "OpenRCX"
*PROGRAM "Parallel Extraction"
*VERSION "1.0"
*DESIGN_FLOW "NAME_SCOPE LOCAL" "PIN_CAP NONE"
*DIVIDER /
*DELIMITER :
*BUS_DELIMITER []
*T_UNIT 1 NS
*C_UNIT 1 PF
*R_UNIT 1 OHM
*L_UNIT 1 HENRY

*NAME_MAP
*1 clk
*2 net23
*3 segm[10]
*4 segm[11]
*5 segm[12]
*6 segm[13]
*7 segm[1]
*8 net24
*9 net25
*10 segm[4]
*11 net26
*12 segm[6]
*13 segm[7]
*14 segm[8]
*15 segm[9]
*16 sel[0]
*17 sel[10]
*18 sel[11]
*19 sel[1]
*20 sel[2]
*21 sel[3]
*22 sel[4]
*23 sel[5]
*24 sel[6]
*25 sel[7]
*26 sel[8]
*27 sel[9]
*30 _000_
*31 _001_
*32 _002_
*33 _003_
*34 _004_
*35 _005_
*36 _006_
*37 _007_
*38 _008_
*39 _009_
*40 _010_
*41 _011_
*42 _012_
*43 _013_
*44 _014_
*45 _015_
*46 _016_
*47 _017_
*48 _018_
*49 _019_
*50 _020_
*51 _021_
*52 _022_
*53 _023_
*54 _024_
*55 _025_
*56 _026_
*57 _027_
*58 _028_
*59 _029_
*60 _030_
*61 _031_
*62 _032_
*63 _033_
*64 _034_
*65 _035_
*66 _036_
*67 _037_
*68 _038_
*69 _039_
*70 _040_
*71 _041_
*72 _042_
*73 _043_
*74 _044_
*75 _045_
*76 _046_
*77 _047_
*78 _048_
*79 _049_
*80 _050_
*81 _051_
*82 _052_
*83 _053_
*84 _054_
*85 _055_
*86 _056_
*87 _057_
*88 _058_
*89 _059_
*90 _060_
*91 _061_
*92 _062_
*93 _063_
*94 _064_
*95 _065_
*96 _066_
*97 _067_
*98 _068_
*99 _069_
*100 _070_
*101 _071_
*102 _072_
*103 _073_
*104 _074_
*105 _075_
*106 _076_
*107 _077_
*108 _078_
*109 _079_
*110 _080_
*111 _081_
*112 _082_
*113 _083_
*114 _084_
*115 clknet_0_clk
*116 clknet_1_0__leaf_clk
*117 clknet_1_1__leaf_clk
*118 dut23\.count\[0\]
*119 dut23\.count\[1\]
*120 dut23\.count\[2\]
*121 dut23\.count\[3\]
*122 net1
*123 net10
*124 net11
*125 net12
*126 net13
*127 net14
*128 net15
*129 net16
*130 net17
*131 net18
*132 net19
*133 net2
*134 net20
*135 net21
*136 net22
*137 net3
*138 net4
*139 net5
*140 net6
*141 net7
*142 net8
*143 net9
*144 ANTENNA__170__CLK
*145 ANTENNA__173__CLK
*146 ANTENNA__176__CLK
*147 ANTENNA__177__CLK
*148 ANTENNA__178__CLK
*149 ANTENNA__180__CLK
*150 ANTENNA__183__CLK
*151 ANTENNA__186__CLK
*152 ANTENNA__187__CLK
*153 ANTENNA__189__CLK
*154 ANTENNA__190__CLK
*155 ANTENNA_clkbuf_0_clk_I
*156 FILLER_0_0_104
*157 FILLER_0_0_138
*158 FILLER_0_0_142
*159 FILLER_0_0_198
*160 FILLER_0_0_2
*161 FILLER_0_0_202
*162 FILLER_0_0_206
*163 FILLER_0_0_240
*164 FILLER_0_0_274
*165 FILLER_0_0_308
*166 FILLER_0_0_342
*167 FILLER_0_0_346
*168 FILLER_0_0_348
*169 FILLER_0_0_36
*170 FILLER_0_0_70
*171 FILLER_0_10_101
*172 FILLER_0_10_107
*173 FILLER_0_10_171
*174 FILLER_0_10_177
*175 FILLER_0_10_2
*176 FILLER_0_10_241
*177 FILLER_0_10_247
*178 FILLER_0_10_311
*179 FILLER_0_10_317
*180 FILLER_0_10_34
*181 FILLER_0_10_37
*182 FILLER_0_11_136
*183 FILLER_0_11_142
*184 FILLER_0_11_150
*185 FILLER_0_11_152
*186 FILLER_0_11_159
*187 FILLER_0_11_191
*188 FILLER_0_11_2
*189 FILLER_0_11_207
*190 FILLER_0_11_209
*191 FILLER_0_11_212
*192 FILLER_0_11_276
*193 FILLER_0_11_282
*194 FILLER_0_11_346
*195 FILLER_0_11_348
*196 FILLER_0_11_66
*197 FILLER_0_11_72
*198 FILLER_0_12_101
*199 FILLER_0_12_107
*200 FILLER_0_12_123
*201 FILLER_0_12_127
*202 FILLER_0_12_129
*203 FILLER_0_12_165
*204 FILLER_0_12_173
*205 FILLER_0_12_177
*206 FILLER_0_12_2
*207 FILLER_0_12_241
*208 FILLER_0_12_247
*209 FILLER_0_12_311
*210 FILLER_0_12_317
*211 FILLER_0_12_34
*212 FILLER_0_12_37
*213 FILLER_0_13_114
*214 FILLER_0_13_130
*215 FILLER_0_13_138
*216 FILLER_0_13_142
*217 FILLER_0_13_150
*218 FILLER_0_13_154
*219 FILLER_0_13_161
*220 FILLER_0_13_192
*221 FILLER_0_13_2
*222 FILLER_0_13_208
*223 FILLER_0_13_212
*224 FILLER_0_13_276
*225 FILLER_0_13_282
*226 FILLER_0_13_346
*227 FILLER_0_13_348
*228 FILLER_0_13_66
*229 FILLER_0_13_72
*230 FILLER_0_13_80
*231 FILLER_0_13_84
*232 FILLER_0_14_107
*233 FILLER_0_14_115
*234 FILLER_0_14_156
*235 FILLER_0_14_164
*236 FILLER_0_14_171
*237 FILLER_0_14_177
*238 FILLER_0_14_2
*239 FILLER_0_14_241
*240 FILLER_0_14_247
*241 FILLER_0_14_311
*242 FILLER_0_14_317
*243 FILLER_0_14_34
*244 FILLER_0_14_37
*245 FILLER_0_15_116
*246 FILLER_0_15_132
*247 FILLER_0_15_151
*248 FILLER_0_15_155
*249 FILLER_0_15_164
*250 FILLER_0_15_172
*251 FILLER_0_15_180
*252 FILLER_0_15_212
*253 FILLER_0_15_276
*254 FILLER_0_15_28
*255 FILLER_0_15_282
*256 FILLER_0_15_346
*257 FILLER_0_15_348
*258 FILLER_0_15_60
*259 FILLER_0_15_68
*260 FILLER_0_15_72
*261 FILLER_0_15_80
*262 FILLER_0_15_84
*263 FILLER_0_15_86
*264 FILLER_0_16_103
*265 FILLER_0_16_107
*266 FILLER_0_16_117
*267 FILLER_0_16_158
*268 FILLER_0_16_162
*269 FILLER_0_16_195
*270 FILLER_0_16_227
*271 FILLER_0_16_243
*272 FILLER_0_16_247
*273 FILLER_0_16_28
*274 FILLER_0_16_311
*275 FILLER_0_16_317
*276 FILLER_0_16_32
*277 FILLER_0_16_34
*278 FILLER_0_16_37
*279 FILLER_0_16_69
*280 FILLER_0_16_85
*281 FILLER_0_16_93
*282 FILLER_0_16_97
*283 FILLER_0_17_104
*284 FILLER_0_17_114
*285 FILLER_0_17_130
*286 FILLER_0_17_138
*287 FILLER_0_17_142
*288 FILLER_0_17_146
*289 FILLER_0_17_197
*290 FILLER_0_17_2
*291 FILLER_0_17_205
*292 FILLER_0_17_209
*293 FILLER_0_17_212
*294 FILLER_0_17_276
*295 FILLER_0_17_282
*296 FILLER_0_17_346
*297 FILLER_0_17_348
*298 FILLER_0_17_66
*299 FILLER_0_17_72
*300 FILLER_0_18_101
*301 FILLER_0_18_116
*302 FILLER_0_18_148
*303 FILLER_0_18_156
*304 FILLER_0_18_158
*305 FILLER_0_18_165
*306 FILLER_0_18_173
*307 FILLER_0_18_189
*308 FILLER_0_18_191
*309 FILLER_0_18_2
*310 FILLER_0_18_221
*311 FILLER_0_18_237
*312 FILLER_0_18_247
*313 FILLER_0_18_311
*314 FILLER_0_18_317
*315 FILLER_0_18_34
*316 FILLER_0_18_37
*317 FILLER_0_18_69
*318 FILLER_0_18_85
*319 FILLER_0_18_93
*320 FILLER_0_19_103
*321 FILLER_0_19_107
*322 FILLER_0_19_138
*323 FILLER_0_19_154
*324 FILLER_0_19_162
*325 FILLER_0_19_164
*326 FILLER_0_19_175
*327 FILLER_0_19_193
*328 FILLER_0_19_209
*329 FILLER_0_19_212
*330 FILLER_0_19_276
*331 FILLER_0_19_28
*332 FILLER_0_19_282
*333 FILLER_0_19_314
*334 FILLER_0_19_322
*335 FILLER_0_19_60
*336 FILLER_0_19_68
*337 FILLER_0_19_72
*338 FILLER_0_1_136
*339 FILLER_0_1_142
*340 FILLER_0_1_150
*341 FILLER_0_1_152
*342 FILLER_0_1_183
*343 FILLER_0_1_199
*344 FILLER_0_1_2
*345 FILLER_0_1_207
*346 FILLER_0_1_209
*347 FILLER_0_1_212
*348 FILLER_0_1_276
*349 FILLER_0_1_282
*350 FILLER_0_1_346
*351 FILLER_0_1_348
*352 FILLER_0_1_66
*353 FILLER_0_1_72
*354 FILLER_0_20_101
*355 FILLER_0_20_107
*356 FILLER_0_20_121
*357 FILLER_0_20_149
*358 FILLER_0_20_151
*359 FILLER_0_20_158
*360 FILLER_0_20_188
*361 FILLER_0_20_2
*362 FILLER_0_20_227
*363 FILLER_0_20_243
*364 FILLER_0_20_247
*365 FILLER_0_20_311
*366 FILLER_0_20_317
*367 FILLER_0_20_321
*368 FILLER_0_20_34
*369 FILLER_0_20_37
*370 FILLER_0_21_106
*371 FILLER_0_21_110
*372 FILLER_0_21_126
*373 FILLER_0_21_134
*374 FILLER_0_21_138
*375 FILLER_0_21_203
*376 FILLER_0_21_207
*377 FILLER_0_21_209
*378 FILLER_0_21_212
*379 FILLER_0_21_217
*380 FILLER_0_21_249
*381 FILLER_0_21_265
*382 FILLER_0_21_273
*383 FILLER_0_21_277
*384 FILLER_0_21_279
*385 FILLER_0_21_28
*386 FILLER_0_21_282
*387 FILLER_0_21_346
*388 FILLER_0_21_348
*389 FILLER_0_21_60
*390 FILLER_0_21_68
*391 FILLER_0_22_104
*392 FILLER_0_22_112
*393 FILLER_0_22_134
*394 FILLER_0_22_138
*395 FILLER_0_22_151
*396 FILLER_0_22_155
*397 FILLER_0_22_157
*398 FILLER_0_22_166
*399 FILLER_0_22_177
*400 FILLER_0_22_192
*401 FILLER_0_22_196
*402 FILLER_0_22_2
*403 FILLER_0_22_228
*404 FILLER_0_22_244
*405 FILLER_0_22_247
*406 FILLER_0_22_311
*407 FILLER_0_22_317
*408 FILLER_0_22_34
*409 FILLER_0_22_37
*410 FILLER_0_22_69
*411 FILLER_0_22_85
*412 FILLER_0_22_93
*413 FILLER_0_22_95
*414 FILLER_0_23_112
*415 FILLER_0_23_122
*416 FILLER_0_23_129
*417 FILLER_0_23_133
*418 FILLER_0_23_155
*419 FILLER_0_23_159
*420 FILLER_0_23_167
*421 FILLER_0_23_169
*422 FILLER_0_23_183
*423 FILLER_0_23_196
*424 FILLER_0_23_2
*425 FILLER_0_23_204
*426 FILLER_0_23_208
*427 FILLER_0_23_212
*428 FILLER_0_23_220
*429 FILLER_0_23_228
*430 FILLER_0_23_260
*431 FILLER_0_23_276
*432 FILLER_0_23_282
*433 FILLER_0_23_314
*434 FILLER_0_23_322
*435 FILLER_0_23_66
*436 FILLER_0_23_72
*437 FILLER_0_23_88
*438 FILLER_0_24_100
*439 FILLER_0_24_104
*440 FILLER_0_24_107
*441 FILLER_0_24_123
*442 FILLER_0_24_125
*443 FILLER_0_24_200
*444 FILLER_0_24_232
*445 FILLER_0_24_240
*446 FILLER_0_24_244
*447 FILLER_0_24_247
*448 FILLER_0_24_28
*449 FILLER_0_24_311
*450 FILLER_0_24_317
*451 FILLER_0_24_32
*452 FILLER_0_24_321
*453 FILLER_0_24_34
*454 FILLER_0_24_37
*455 FILLER_0_24_69
*456 FILLER_0_25_124
*457 FILLER_0_25_128
*458 FILLER_0_25_136
*459 FILLER_0_25_142
*460 FILLER_0_25_193
*461 FILLER_0_25_195
*462 FILLER_0_25_2
*463 FILLER_0_25_201
*464 FILLER_0_25_209
*465 FILLER_0_25_212
*466 FILLER_0_25_276
*467 FILLER_0_25_282
*468 FILLER_0_25_346
*469 FILLER_0_25_348
*470 FILLER_0_25_66
*471 FILLER_0_25_72
*472 FILLER_0_25_88
*473 FILLER_0_25_92
*474 FILLER_0_25_94
*475 FILLER_0_26_101
*476 FILLER_0_26_111
*477 FILLER_0_26_115
*478 FILLER_0_26_118
*479 FILLER_0_26_122
*480 FILLER_0_26_129
*481 FILLER_0_26_137
*482 FILLER_0_26_167
*483 FILLER_0_26_171
*484 FILLER_0_26_182
*485 FILLER_0_26_2
*486 FILLER_0_26_211
*487 FILLER_0_26_243
*488 FILLER_0_26_247
*489 FILLER_0_26_311
*490 FILLER_0_26_317
*491 FILLER_0_26_34
*492 FILLER_0_26_37
*493 FILLER_0_27_125
*494 FILLER_0_27_133
*495 FILLER_0_27_137
*496 FILLER_0_27_139
*497 FILLER_0_27_142
*498 FILLER_0_27_158
*499 FILLER_0_27_171
*500 FILLER_0_27_2
*501 FILLER_0_27_224
*502 FILLER_0_27_256
*503 FILLER_0_27_272
*504 FILLER_0_27_282
*505 FILLER_0_27_314
*506 FILLER_0_27_322
*507 FILLER_0_27_66
*508 FILLER_0_27_72
*509 FILLER_0_27_80
*510 FILLER_0_27_84
*511 FILLER_0_27_86
*512 FILLER_0_28_101
*513 FILLER_0_28_107
*514 FILLER_0_28_123
*515 FILLER_0_28_137
*516 FILLER_0_28_153
*517 FILLER_0_28_161
*518 FILLER_0_28_172
*519 FILLER_0_28_174
*520 FILLER_0_28_177
*521 FILLER_0_28_185
*522 FILLER_0_28_220
*523 FILLER_0_28_236
*524 FILLER_0_28_244
*525 FILLER_0_28_247
*526 FILLER_0_28_28
*527 FILLER_0_28_311
*528 FILLER_0_28_317
*529 FILLER_0_28_32
*530 FILLER_0_28_321
*531 FILLER_0_28_34
*532 FILLER_0_28_37
*533 FILLER_0_29_104
*534 FILLER_0_29_108
*535 FILLER_0_29_138
*536 FILLER_0_29_142
*537 FILLER_0_29_183
*538 FILLER_0_29_187
*539 FILLER_0_29_2
*540 FILLER_0_29_203
*541 FILLER_0_29_207
*542 FILLER_0_29_209
*543 FILLER_0_29_212
*544 FILLER_0_29_276
*545 FILLER_0_29_282
*546 FILLER_0_29_346
*547 FILLER_0_29_348
*548 FILLER_0_29_66
*549 FILLER_0_29_72
*550 FILLER_0_2_101
*551 FILLER_0_2_107
*552 FILLER_0_2_139
*553 FILLER_0_2_143
*554 FILLER_0_2_171
*555 FILLER_0_2_177
*556 FILLER_0_2_2
*557 FILLER_0_2_241
*558 FILLER_0_2_247
*559 FILLER_0_2_311
*560 FILLER_0_2_317
*561 FILLER_0_2_333
*562 FILLER_0_2_34
*563 FILLER_0_2_341
*564 FILLER_0_2_37
*565 FILLER_0_30_101
*566 FILLER_0_30_107
*567 FILLER_0_30_123
*568 FILLER_0_30_131
*569 FILLER_0_30_135
*570 FILLER_0_30_137
*571 FILLER_0_30_140
*572 FILLER_0_30_144
*573 FILLER_0_30_177
*574 FILLER_0_30_181
*575 FILLER_0_30_2
*576 FILLER_0_30_247
*577 FILLER_0_30_311
*578 FILLER_0_30_317
*579 FILLER_0_30_34
*580 FILLER_0_30_37
*581 FILLER_0_31_136
*582 FILLER_0_31_142
*583 FILLER_0_31_2
*584 FILLER_0_31_206
*585 FILLER_0_31_212
*586 FILLER_0_31_276
*587 FILLER_0_31_282
*588 FILLER_0_31_346
*589 FILLER_0_31_348
*590 FILLER_0_31_66
*591 FILLER_0_31_72
*592 FILLER_0_32_101
*593 FILLER_0_32_107
*594 FILLER_0_32_171
*595 FILLER_0_32_177
*596 FILLER_0_32_2
*597 FILLER_0_32_241
*598 FILLER_0_32_247
*599 FILLER_0_32_311
*600 FILLER_0_32_317
*601 FILLER_0_32_34
*602 FILLER_0_32_37
*603 FILLER_0_33_136
*604 FILLER_0_33_142
*605 FILLER_0_33_2
*606 FILLER_0_33_206
*607 FILLER_0_33_212
*608 FILLER_0_33_276
*609 FILLER_0_33_282
*610 FILLER_0_33_346
*611 FILLER_0_33_348
*612 FILLER_0_33_66
*613 FILLER_0_33_72
*614 FILLER_0_34_101
*615 FILLER_0_34_107
*616 FILLER_0_34_171
*617 FILLER_0_34_177
*618 FILLER_0_34_2
*619 FILLER_0_34_241
*620 FILLER_0_34_247
*621 FILLER_0_34_311
*622 FILLER_0_34_317
*623 FILLER_0_34_34
*624 FILLER_0_34_37
*625 FILLER_0_35_136
*626 FILLER_0_35_142
*627 FILLER_0_35_2
*628 FILLER_0_35_206
*629 FILLER_0_35_212
*630 FILLER_0_35_276
*631 FILLER_0_35_282
*632 FILLER_0_35_346
*633 FILLER_0_35_348
*634 FILLER_0_35_66
*635 FILLER_0_35_72
*636 FILLER_0_36_101
*637 FILLER_0_36_107
*638 FILLER_0_36_171
*639 FILLER_0_36_177
*640 FILLER_0_36_2
*641 FILLER_0_36_241
*642 FILLER_0_36_247
*643 FILLER_0_36_311
*644 FILLER_0_36_317
*645 FILLER_0_36_34
*646 FILLER_0_36_37
*647 FILLER_0_37_136
*648 FILLER_0_37_142
*649 FILLER_0_37_2
*650 FILLER_0_37_206
*651 FILLER_0_37_212
*652 FILLER_0_37_276
*653 FILLER_0_37_282
*654 FILLER_0_37_346
*655 FILLER_0_37_348
*656 FILLER_0_37_66
*657 FILLER_0_37_72
*658 FILLER_0_38_101
*659 FILLER_0_38_107
*660 FILLER_0_38_171
*661 FILLER_0_38_177
*662 FILLER_0_38_2
*663 FILLER_0_38_241
*664 FILLER_0_38_247
*665 FILLER_0_38_311
*666 FILLER_0_38_317
*667 FILLER_0_38_34
*668 FILLER_0_38_37
*669 FILLER_0_39_136
*670 FILLER_0_39_142
*671 FILLER_0_39_2
*672 FILLER_0_39_206
*673 FILLER_0_39_212
*674 FILLER_0_39_276
*675 FILLER_0_39_282
*676 FILLER_0_39_346
*677 FILLER_0_39_348
*678 FILLER_0_39_66
*679 FILLER_0_39_72
*680 FILLER_0_3_136
*681 FILLER_0_3_142
*682 FILLER_0_3_2
*683 FILLER_0_3_206
*684 FILLER_0_3_212
*685 FILLER_0_3_276
*686 FILLER_0_3_282
*687 FILLER_0_3_346
*688 FILLER_0_3_348
*689 FILLER_0_3_66
*690 FILLER_0_3_72
*691 FILLER_0_40_101
*692 FILLER_0_40_107
*693 FILLER_0_40_171
*694 FILLER_0_40_177
*695 FILLER_0_40_2
*696 FILLER_0_40_241
*697 FILLER_0_40_247
*698 FILLER_0_40_311
*699 FILLER_0_40_317
*700 FILLER_0_40_34
*701 FILLER_0_40_37
*702 FILLER_0_41_136
*703 FILLER_0_41_142
*704 FILLER_0_41_2
*705 FILLER_0_41_206
*706 FILLER_0_41_212
*707 FILLER_0_41_276
*708 FILLER_0_41_282
*709 FILLER_0_41_346
*710 FILLER_0_41_348
*711 FILLER_0_41_66
*712 FILLER_0_41_72
*713 FILLER_0_42_101
*714 FILLER_0_42_107
*715 FILLER_0_42_171
*716 FILLER_0_42_177
*717 FILLER_0_42_2
*718 FILLER_0_42_241
*719 FILLER_0_42_247
*720 FILLER_0_42_311
*721 FILLER_0_42_317
*722 FILLER_0_42_34
*723 FILLER_0_42_37
*724 FILLER_0_43_136
*725 FILLER_0_43_168
*726 FILLER_0_43_195
*727 FILLER_0_43_203
*728 FILLER_0_43_207
*729 FILLER_0_43_209
*730 FILLER_0_43_212
*731 FILLER_0_43_216
*732 FILLER_0_43_243
*733 FILLER_0_43_275
*734 FILLER_0_43_279
*735 FILLER_0_43_282
*736 FILLER_0_43_346
*737 FILLER_0_43_348
*738 FILLER_0_43_6
*739 FILLER_0_43_72
*740 FILLER_0_44_104
*741 FILLER_0_44_138
*742 FILLER_0_44_142
*743 FILLER_0_44_172
*744 FILLER_0_44_174
*745 FILLER_0_44_2
*746 FILLER_0_44_201
*747 FILLER_0_44_203
*748 FILLER_0_44_206
*749 FILLER_0_44_210
*750 FILLER_0_44_237
*751 FILLER_0_44_240
*752 FILLER_0_44_274
*753 FILLER_0_44_308
*754 FILLER_0_44_342
*755 FILLER_0_44_346
*756 FILLER_0_44_348
*757 FILLER_0_44_36
*758 FILLER_0_44_70
*759 FILLER_0_4_101
*760 FILLER_0_4_107
*761 FILLER_0_4_171
*762 FILLER_0_4_177
*763 FILLER_0_4_2
*764 FILLER_0_4_241
*765 FILLER_0_4_247
*766 FILLER_0_4_311
*767 FILLER_0_4_317
*768 FILLER_0_4_34
*769 FILLER_0_4_37
*770 FILLER_0_5_136
*771 FILLER_0_5_142
*772 FILLER_0_5_2
*773 FILLER_0_5_206
*774 FILLER_0_5_212
*775 FILLER_0_5_276
*776 FILLER_0_5_282
*777 FILLER_0_5_346
*778 FILLER_0_5_348
*779 FILLER_0_5_66
*780 FILLER_0_5_72
*781 FILLER_0_6_101
*782 FILLER_0_6_107
*783 FILLER_0_6_171
*784 FILLER_0_6_177
*785 FILLER_0_6_2
*786 FILLER_0_6_241
*787 FILLER_0_6_247
*788 FILLER_0_6_311
*789 FILLER_0_6_317
*790 FILLER_0_6_34
*791 FILLER_0_6_37
*792 FILLER_0_7_136
*793 FILLER_0_7_142
*794 FILLER_0_7_2
*795 FILLER_0_7_206
*796 FILLER_0_7_212
*797 FILLER_0_7_276
*798 FILLER_0_7_282
*799 FILLER_0_7_346
*800 FILLER_0_7_348
*801 FILLER_0_7_66
*802 FILLER_0_7_72
*803 FILLER_0_8_101
*804 FILLER_0_8_107
*805 FILLER_0_8_171
*806 FILLER_0_8_177
*807 FILLER_0_8_2
*808 FILLER_0_8_241
*809 FILLER_0_8_247
*810 FILLER_0_8_311
*811 FILLER_0_8_317
*812 FILLER_0_8_34
*813 FILLER_0_8_37
*814 FILLER_0_9_136
*815 FILLER_0_9_142
*816 FILLER_0_9_2
*817 FILLER_0_9_206
*818 FILLER_0_9_212
*819 FILLER_0_9_276
*820 FILLER_0_9_282
*821 FILLER_0_9_314
*822 FILLER_0_9_330
*823 FILLER_0_9_338
*824 FILLER_0_9_342
*825 FILLER_0_9_344
*826 FILLER_0_9_66
*827 FILLER_0_9_72
*828 PHY_EDGE_ROW_0_Left_45
*829 PHY_EDGE_ROW_0_Right_0
*830 PHY_EDGE_ROW_10_Left_55
*831 PHY_EDGE_ROW_10_Right_10
*832 PHY_EDGE_ROW_11_Left_56
*833 PHY_EDGE_ROW_11_Right_11
*834 PHY_EDGE_ROW_12_Left_57
*835 PHY_EDGE_ROW_12_Right_12
*836 PHY_EDGE_ROW_13_Left_58
*837 PHY_EDGE_ROW_13_Right_13
*838 PHY_EDGE_ROW_14_Left_59
*839 PHY_EDGE_ROW_14_Right_14
*840 PHY_EDGE_ROW_15_Left_60
*841 PHY_EDGE_ROW_15_Right_15
*842 PHY_EDGE_ROW_16_Left_61
*843 PHY_EDGE_ROW_16_Right_16
*844 PHY_EDGE_ROW_17_Left_62
*845 PHY_EDGE_ROW_17_Right_17
*846 PHY_EDGE_ROW_18_Left_63
*847 PHY_EDGE_ROW_18_Right_18
*848 PHY_EDGE_ROW_19_Left_64
*849 PHY_EDGE_ROW_19_Right_19
*850 PHY_EDGE_ROW_1_Left_46
*851 PHY_EDGE_ROW_1_Right_1
*852 PHY_EDGE_ROW_20_Left_65
*853 PHY_EDGE_ROW_20_Right_20
*854 PHY_EDGE_ROW_21_Left_66
*855 PHY_EDGE_ROW_21_Right_21
*856 PHY_EDGE_ROW_22_Left_67
*857 PHY_EDGE_ROW_22_Right_22
*858 PHY_EDGE_ROW_23_Left_68
*859 PHY_EDGE_ROW_23_Right_23
*860 PHY_EDGE_ROW_24_Left_69
*861 PHY_EDGE_ROW_24_Right_24
*862 PHY_EDGE_ROW_25_Left_70
*863 PHY_EDGE_ROW_25_Right_25
*864 PHY_EDGE_ROW_26_Left_71
*865 PHY_EDGE_ROW_26_Right_26
*866 PHY_EDGE_ROW_27_Left_72
*867 PHY_EDGE_ROW_27_Right_27
*868 PHY_EDGE_ROW_28_Left_73
*869 PHY_EDGE_ROW_28_Right_28
*870 PHY_EDGE_ROW_29_Left_74
*871 PHY_EDGE_ROW_29_Right_29
*872 PHY_EDGE_ROW_2_Left_47
*873 PHY_EDGE_ROW_2_Right_2
*874 PHY_EDGE_ROW_30_Left_75
*875 PHY_EDGE_ROW_30_Right_30
*876 PHY_EDGE_ROW_31_Left_76
*877 PHY_EDGE_ROW_31_Right_31
*878 PHY_EDGE_ROW_32_Left_77
*879 PHY_EDGE_ROW_32_Right_32
*880 PHY_EDGE_ROW_33_Left_78
*881 PHY_EDGE_ROW_33_Right_33
*882 PHY_EDGE_ROW_34_Left_79
*883 PHY_EDGE_ROW_34_Right_34
*884 PHY_EDGE_ROW_35_Left_80
*885 PHY_EDGE_ROW_35_Right_35
*886 PHY_EDGE_ROW_36_Left_81
*887 PHY_EDGE_ROW_36_Right_36
*888 PHY_EDGE_ROW_37_Left_82
*889 PHY_EDGE_ROW_37_Right_37
*890 PHY_EDGE_ROW_38_Left_83
*891 PHY_EDGE_ROW_38_Right_38
*892 PHY_EDGE_ROW_39_Left_84
*893 PHY_EDGE_ROW_39_Right_39
*894 PHY_EDGE_ROW_3_Left_48
*895 PHY_EDGE_ROW_3_Right_3
*896 PHY_EDGE_ROW_40_Left_85
*897 PHY_EDGE_ROW_40_Right_40
*898 PHY_EDGE_ROW_41_Left_86
*899 PHY_EDGE_ROW_41_Right_41
*900 PHY_EDGE_ROW_42_Left_87
*901 PHY_EDGE_ROW_42_Right_42
*902 PHY_EDGE_ROW_43_Left_88
*903 PHY_EDGE_ROW_43_Right_43
*904 PHY_EDGE_ROW_44_Left_89
*905 PHY_EDGE_ROW_44_Right_44
*906 PHY_EDGE_ROW_4_Left_49
*907 PHY_EDGE_ROW_4_Right_4
*908 PHY_EDGE_ROW_5_Left_50
*909 PHY_EDGE_ROW_5_Right_5
*910 PHY_EDGE_ROW_6_Left_51
*911 PHY_EDGE_ROW_6_Right_6
*912 PHY_EDGE_ROW_7_Left_52
*913 PHY_EDGE_ROW_7_Right_7
*914 PHY_EDGE_ROW_8_Left_53
*915 PHY_EDGE_ROW_8_Right_8
*916 PHY_EDGE_ROW_9_Left_54
*917 PHY_EDGE_ROW_9_Right_9
*918 TAP_TAPCELL_ROW_0_90
*919 TAP_TAPCELL_ROW_0_91
*920 TAP_TAPCELL_ROW_0_92
*921 TAP_TAPCELL_ROW_0_93
*922 TAP_TAPCELL_ROW_0_94
*923 TAP_TAPCELL_ROW_0_95
*924 TAP_TAPCELL_ROW_0_96
*925 TAP_TAPCELL_ROW_0_97
*926 TAP_TAPCELL_ROW_0_98
*927 TAP_TAPCELL_ROW_0_99
*928 TAP_TAPCELL_ROW_10_140
*929 TAP_TAPCELL_ROW_10_141
*930 TAP_TAPCELL_ROW_10_142
*931 TAP_TAPCELL_ROW_10_143
*932 TAP_TAPCELL_ROW_10_144
*933 TAP_TAPCELL_ROW_11_145
*934 TAP_TAPCELL_ROW_11_146
*935 TAP_TAPCELL_ROW_11_147
*936 TAP_TAPCELL_ROW_11_148
*937 TAP_TAPCELL_ROW_12_149
*938 TAP_TAPCELL_ROW_12_150
*939 TAP_TAPCELL_ROW_12_151
*940 TAP_TAPCELL_ROW_12_152
*941 TAP_TAPCELL_ROW_12_153
*942 TAP_TAPCELL_ROW_13_154
*943 TAP_TAPCELL_ROW_13_155
*944 TAP_TAPCELL_ROW_13_156
*945 TAP_TAPCELL_ROW_13_157
*946 TAP_TAPCELL_ROW_14_158
*947 TAP_TAPCELL_ROW_14_159
*948 TAP_TAPCELL_ROW_14_160
*949 TAP_TAPCELL_ROW_14_161
*950 TAP_TAPCELL_ROW_14_162
*951 TAP_TAPCELL_ROW_15_163
*952 TAP_TAPCELL_ROW_15_164
*953 TAP_TAPCELL_ROW_15_165
*954 TAP_TAPCELL_ROW_15_166
*955 TAP_TAPCELL_ROW_16_167
*956 TAP_TAPCELL_ROW_16_168
*957 TAP_TAPCELL_ROW_16_169
*958 TAP_TAPCELL_ROW_16_170
*959 TAP_TAPCELL_ROW_16_171
*960 TAP_TAPCELL_ROW_17_172
*961 TAP_TAPCELL_ROW_17_173
*962 TAP_TAPCELL_ROW_17_174
*963 TAP_TAPCELL_ROW_17_175
*964 TAP_TAPCELL_ROW_18_176
*965 TAP_TAPCELL_ROW_18_177
*966 TAP_TAPCELL_ROW_18_178
*967 TAP_TAPCELL_ROW_18_179
*968 TAP_TAPCELL_ROW_18_180
*969 TAP_TAPCELL_ROW_19_181
*970 TAP_TAPCELL_ROW_19_182
*971 TAP_TAPCELL_ROW_19_183
*972 TAP_TAPCELL_ROW_19_184
*973 TAP_TAPCELL_ROW_1_100
*974 TAP_TAPCELL_ROW_1_101
*975 TAP_TAPCELL_ROW_1_102
*976 TAP_TAPCELL_ROW_1_103
*977 TAP_TAPCELL_ROW_20_185
*978 TAP_TAPCELL_ROW_20_186
*979 TAP_TAPCELL_ROW_20_187
*980 TAP_TAPCELL_ROW_20_188
*981 TAP_TAPCELL_ROW_20_189
*982 TAP_TAPCELL_ROW_21_190
*983 TAP_TAPCELL_ROW_21_191
*984 TAP_TAPCELL_ROW_21_192
*985 TAP_TAPCELL_ROW_21_193
*986 TAP_TAPCELL_ROW_22_194
*987 TAP_TAPCELL_ROW_22_195
*988 TAP_TAPCELL_ROW_22_196
*989 TAP_TAPCELL_ROW_22_197
*990 TAP_TAPCELL_ROW_22_198
*991 TAP_TAPCELL_ROW_23_199
*992 TAP_TAPCELL_ROW_23_200
*993 TAP_TAPCELL_ROW_23_201
*994 TAP_TAPCELL_ROW_23_202
*995 TAP_TAPCELL_ROW_24_203
*996 TAP_TAPCELL_ROW_24_204
*997 TAP_TAPCELL_ROW_24_205
*998 TAP_TAPCELL_ROW_24_206
*999 TAP_TAPCELL_ROW_24_207
*1000 TAP_TAPCELL_ROW_25_208
*1001 TAP_TAPCELL_ROW_25_209
*1002 TAP_TAPCELL_ROW_25_210
*1003 TAP_TAPCELL_ROW_25_211
*1004 TAP_TAPCELL_ROW_26_212
*1005 TAP_TAPCELL_ROW_26_213
*1006 TAP_TAPCELL_ROW_26_214
*1007 TAP_TAPCELL_ROW_26_215
*1008 TAP_TAPCELL_ROW_26_216
*1009 TAP_TAPCELL_ROW_27_217
*1010 TAP_TAPCELL_ROW_27_218
*1011 TAP_TAPCELL_ROW_27_219
*1012 TAP_TAPCELL_ROW_27_220
*1013 TAP_TAPCELL_ROW_28_221
*1014 TAP_TAPCELL_ROW_28_222
*1015 TAP_TAPCELL_ROW_28_223
*1016 TAP_TAPCELL_ROW_28_224
*1017 TAP_TAPCELL_ROW_28_225
*1018 TAP_TAPCELL_ROW_29_226
*1019 TAP_TAPCELL_ROW_29_227
*1020 TAP_TAPCELL_ROW_29_228
*1021 TAP_TAPCELL_ROW_29_229
*1022 TAP_TAPCELL_ROW_2_104
*1023 TAP_TAPCELL_ROW_2_105
*1024 TAP_TAPCELL_ROW_2_106
*1025 TAP_TAPCELL_ROW_2_107
*1026 TAP_TAPCELL_ROW_2_108
*1027 TAP_TAPCELL_ROW_30_230
*1028 TAP_TAPCELL_ROW_30_231
*1029 TAP_TAPCELL_ROW_30_232
*1030 TAP_TAPCELL_ROW_30_233
*1031 TAP_TAPCELL_ROW_30_234
*1032 TAP_TAPCELL_ROW_31_235
*1033 TAP_TAPCELL_ROW_31_236
*1034 TAP_TAPCELL_ROW_31_237
*1035 TAP_TAPCELL_ROW_31_238
*1036 TAP_TAPCELL_ROW_32_239
*1037 TAP_TAPCELL_ROW_32_240
*1038 TAP_TAPCELL_ROW_32_241
*1039 TAP_TAPCELL_ROW_32_242
*1040 TAP_TAPCELL_ROW_32_243
*1041 TAP_TAPCELL_ROW_33_244
*1042 TAP_TAPCELL_ROW_33_245
*1043 TAP_TAPCELL_ROW_33_246
*1044 TAP_TAPCELL_ROW_33_247
*1045 TAP_TAPCELL_ROW_34_248
*1046 TAP_TAPCELL_ROW_34_249
*1047 TAP_TAPCELL_ROW_34_250
*1048 TAP_TAPCELL_ROW_34_251
*1049 TAP_TAPCELL_ROW_34_252
*1050 TAP_TAPCELL_ROW_35_253
*1051 TAP_TAPCELL_ROW_35_254
*1052 TAP_TAPCELL_ROW_35_255
*1053 TAP_TAPCELL_ROW_35_256
*1054 TAP_TAPCELL_ROW_36_257
*1055 TAP_TAPCELL_ROW_36_258
*1056 TAP_TAPCELL_ROW_36_259
*1057 TAP_TAPCELL_ROW_36_260
*1058 TAP_TAPCELL_ROW_36_261
*1059 TAP_TAPCELL_ROW_37_262
*1060 TAP_TAPCELL_ROW_37_263
*1061 TAP_TAPCELL_ROW_37_264
*1062 TAP_TAPCELL_ROW_37_265
*1063 TAP_TAPCELL_ROW_38_266
*1064 TAP_TAPCELL_ROW_38_267
*1065 TAP_TAPCELL_ROW_38_268
*1066 TAP_TAPCELL_ROW_38_269
*1067 TAP_TAPCELL_ROW_38_270
*1068 TAP_TAPCELL_ROW_39_271
*1069 TAP_TAPCELL_ROW_39_272
*1070 TAP_TAPCELL_ROW_39_273
*1071 TAP_TAPCELL_ROW_39_274
*1072 TAP_TAPCELL_ROW_3_109
*1073 TAP_TAPCELL_ROW_3_110
*1074 TAP_TAPCELL_ROW_3_111
*1075 TAP_TAPCELL_ROW_3_112
*1076 TAP_TAPCELL_ROW_40_275
*1077 TAP_TAPCELL_ROW_40_276
*1078 TAP_TAPCELL_ROW_40_277
*1079 TAP_TAPCELL_ROW_40_278
*1080 TAP_TAPCELL_ROW_40_279
*1081 TAP_TAPCELL_ROW_41_280
*1082 TAP_TAPCELL_ROW_41_281
*1083 TAP_TAPCELL_ROW_41_282
*1084 TAP_TAPCELL_ROW_41_283
*1085 TAP_TAPCELL_ROW_42_284
*1086 TAP_TAPCELL_ROW_42_285
*1087 TAP_TAPCELL_ROW_42_286
*1088 TAP_TAPCELL_ROW_42_287
*1089 TAP_TAPCELL_ROW_42_288
*1090 TAP_TAPCELL_ROW_43_289
*1091 TAP_TAPCELL_ROW_43_290
*1092 TAP_TAPCELL_ROW_43_291
*1093 TAP_TAPCELL_ROW_43_292
*1094 TAP_TAPCELL_ROW_44_293
*1095 TAP_TAPCELL_ROW_44_294
*1096 TAP_TAPCELL_ROW_44_295
*1097 TAP_TAPCELL_ROW_44_296
*1098 TAP_TAPCELL_ROW_44_297
*1099 TAP_TAPCELL_ROW_44_298
*1100 TAP_TAPCELL_ROW_44_299
*1101 TAP_TAPCELL_ROW_44_300
*1102 TAP_TAPCELL_ROW_44_301
*1103 TAP_TAPCELL_ROW_44_302
*1104 TAP_TAPCELL_ROW_4_113
*1105 TAP_TAPCELL_ROW_4_114
*1106 TAP_TAPCELL_ROW_4_115
*1107 TAP_TAPCELL_ROW_4_116
*1108 TAP_TAPCELL_ROW_4_117
*1109 TAP_TAPCELL_ROW_5_118
*1110 TAP_TAPCELL_ROW_5_119
*1111 TAP_TAPCELL_ROW_5_120
*1112 TAP_TAPCELL_ROW_5_121
*1113 TAP_TAPCELL_ROW_6_122
*1114 TAP_TAPCELL_ROW_6_123
*1115 TAP_TAPCELL_ROW_6_124
*1116 TAP_TAPCELL_ROW_6_125
*1117 TAP_TAPCELL_ROW_6_126
*1118 TAP_TAPCELL_ROW_7_127
*1119 TAP_TAPCELL_ROW_7_128
*1120 TAP_TAPCELL_ROW_7_129
*1121 TAP_TAPCELL_ROW_7_130
*1122 TAP_TAPCELL_ROW_8_131
*1123 TAP_TAPCELL_ROW_8_132
*1124 TAP_TAPCELL_ROW_8_133
*1125 TAP_TAPCELL_ROW_8_134
*1126 TAP_TAPCELL_ROW_8_135
*1127 TAP_TAPCELL_ROW_9_136
*1128 TAP_TAPCELL_ROW_9_137
*1129 TAP_TAPCELL_ROW_9_138
*1130 TAP_TAPCELL_ROW_9_139
*1131 _085_
*1132 _086_
*1133 _087_
*1134 _088_
*1135 _089_
*1136 _090_
*1137 _091_
*1138 _092_
*1139 _093_
*1140 _094_
*1141 _095_
*1142 _096_
*1143 _097_
*1144 _098_
*1145 _099_
*1146 _100_
*1147 _101_
*1148 _102_
*1149 _103_
*1150 _104_
*1151 _105_
*1152 _106_
*1153 _107_
*1154 _108_
*1155 _109_
*1156 _110_
*1157 _111_
*1158 _112_
*1159 _113_
*1160 _114_
*1161 _115_
*1162 _116_
*1163 _117_
*1164 _118_
*1165 _119_
*1166 _120_
*1167 _121_
*1168 _122_
*1169 _123_
*1170 _124_
*1171 _125_
*1172 _126_
*1173 _127_
*1174 _128_
*1175 _129_
*1176 _130_
*1177 _131_
*1178 _132_
*1179 _133_
*1180 _134_
*1181 _135_
*1182 _136_
*1183 _137_
*1184 _138_
*1185 _139_
*1186 _140_
*1187 _141_
*1188 _142_
*1189 _143_
*1190 _144_
*1191 _145_
*1192 _146_
*1193 _147_
*1194 _148_
*1195 _149_
*1196 _150_
*1197 _151_
*1198 _152_
*1199 _153_
*1200 _154_
*1201 _155_
*1202 _156_
*1203 _157_
*1204 _158_
*1205 _159_
*1206 _160_
*1207 _161_
*1208 _162_
*1209 _163_
*1210 _164_
*1211 _165_
*1212 _166_
*1213 _167_
*1214 _168_
*1215 _169_
*1216 _170_
*1217 _171_
*1218 _172_
*1219 _173_
*1220 _174_
*1221 _175_
*1222 _176_
*1223 _177_
*1224 _178_
*1225 _179_
*1226 _180_
*1227 _181_
*1228 _182_
*1229 _183_
*1230 _184_
*1231 _185_
*1232 _186_
*1233 _187_
*1234 _188_
*1235 _189_
*1236 _190_
*1237 _195_
*1238 _196_
*1239 _197_
*1240 _198_
*1241 _199_
*1242 clkbuf_0_clk
*1243 clkbuf_1_0__f_clk
*1244 clkbuf_1_1__f_clk
*1245 ita23_23
*1246 ita23_24
*1247 ita23_25
*1248 ita23_26
*1249 output1
*1250 output10
*1251 output11
*1252 output12
*1253 output13
*1254 output14
*1255 output15
*1256 output16
*1257 output17
*1258 output18
*1259 output19
*1260 output2
*1261 output20
*1262 output21
*1263 output22
*1264 output3
*1265 output4
*1266 output5
*1267 output6
*1268 output7
*1269 output8
*1270 output9

*PORTS
clk I
segm[0] O
segm[10] O
segm[11] O
segm[12] O
segm[13] O
segm[1] O
segm[2] O
segm[3] O
segm[4] O
segm[5] O
segm[6] O
segm[7] O
segm[8] O
segm[9] O
sel[0] O
sel[10] O
sel[11] O
sel[1] O
sel[2] O
sel[3] O
sel[4] O
sel[5] O
sel[6] O
sel[7] O
sel[8] O
sel[9] O

*D_NET *1 0.0146631
*CONN
*P clk I
*I *1242:I I *D gf180mcu_fd_sc_mcu7t5v0__clkbuf_16
*I *155:I I *D gf180mcu_fd_sc_mcu7t5v0__antenna
*CAP
1 clk 0.00255407
2 *1242:I 0.000112256
3 *155:I 0
4 *1:15 0.00210549
5 *1:11 0.00454731
6 *1242:I *1152:A2 0.00012524
7 *1242:I *75:21 0.000169099
8 *1242:I *96:32 5.47431e-06
9 *1:11 *1262:I 3.72303e-05
10 *1:15 *1147:B 0.000284591
11 *1:15 *1157:A1 4.16074e-05
12 *1:15 *1161:I 0
13 *1:15 *1162:A1 0.00036156
14 *1:15 *1163:A2 0.000347568
15 *1:15 *1180:A2 0
16 *1:15 *1194:A2 0.000268824
17 *1:15 *1208:I 0.00116408
18 *1:15 *1224:CLK 0.000126746
19 *1:15 *1256:I 0.000584351
20 *1:15 *89:8 0.000653493
21 *1:15 *89:12 0.00102346
22 *1:15 *90:10 3.48225e-05
23 *1:15 *94:10 0.000115856
*RES
1 clk *1:11 27.668 
2 *1:11 *1:15 29.772 
3 *1:15 *155:I 4.5 
4 *1:15 *1242:I 5.956 
*END

*D_NET *2 0.000651023
*CONN
*P segm[0] O
*I *1245:ZN O *D gf180mcu_fd_sc_mcu7t5v0__tiel
*CAP
1 segm[0] 0.000325511
2 *1245:ZN 0.000325511
*RES
1 *1245:ZN segm[0] 11.652 
*END

*D_NET *3 0.00137594
*CONN
*P segm[10] O
*I *1249:Z O *D gf180mcu_fd_sc_mcu7t5v0__buf_8
*CAP
1 segm[10] 0.000550491
2 *1249:Z 0.000550491
3 segm[10] segm[4] 0.000137478
4 segm[10] sel[6] 0.000137478
*RES
1 *1249:Z segm[10] 9.96 
*END

*D_NET *4 0.000837676
*CONN
*P segm[11] O
*I *1260:Z O *D gf180mcu_fd_sc_mcu7t5v0__buf_8
*CAP
1 segm[11] 0.000382831
2 *1260:Z 0.000382831
3 segm[11] sel[11] 7.20128e-05
*RES
1 *1260:Z segm[11] 12.276 
*END

*D_NET *5 0.000876817
*CONN
*P segm[12] O
*I *1264:Z O *D gf180mcu_fd_sc_mcu7t5v0__buf_8
*CAP
1 segm[12] 0.000403912
2 *1264:Z 0.000403912
3 segm[12] segm[8] 6.8994e-05
*RES
1 *1264:Z segm[12] 12.276 
*END

*D_NET *6 0.00203995
*CONN
*P segm[13] O
*I *1265:Z O *D gf180mcu_fd_sc_mcu7t5v0__buf_8
*CAP
1 segm[13] 0.000950038
2 *1265:Z 0.000950038
3 segm[13] segm[9] 0.000139874
*RES
1 *1265:Z segm[13] 21.56 
*END

*D_NET *7 0.00211813
*CONN
*P segm[1] O
*I *1266:Z O *D gf180mcu_fd_sc_mcu7t5v0__buf_8
*CAP
1 segm[1] 0.00102006
2 *1266:Z 0.00102006
3 segm[1] segm[2] 7.80089e-05
*RES
1 *1266:Z segm[1] 21.872 
*END

*D_NET *8 0.00316668
*CONN
*P segm[2] O
*I *1246:ZN O *D gf180mcu_fd_sc_mcu7t5v0__tiel
*CAP
1 segm[2] 0.000754949
2 *1246:ZN 0.000754949
3 segm[2] segm[4] 0.00137126
4 segm[2] *1249:I 8.52736e-05
5 segm[2] *1267:I 0.000122244
6 segm[1] segm[2] 7.80089e-05
*RES
1 *1246:ZN segm[2] 13.184 
*END

*D_NET *9 0.000620334
*CONN
*P segm[3] O
*I *1247:ZN O *D gf180mcu_fd_sc_mcu7t5v0__tiel
*CAP
1 segm[3] 0.000310167
2 *1247:ZN 0.000310167
*RES
1 *1247:ZN segm[3] 11.236 
*END

*D_NET *10 0.00334968
*CONN
*P segm[4] O
*I *1267:Z O *D gf180mcu_fd_sc_mcu7t5v0__buf_8
*CAP
1 segm[4] 0.000920471
2 *1267:Z 0.000920471
3 segm[10] segm[4] 0.000137478
4 segm[2] segm[4] 0.00137126
*RES
1 *1267:Z segm[4] 22.184 
*END

*D_NET *11 0.000854917
*CONN
*P segm[5] O
*I *1248:ZN O *D gf180mcu_fd_sc_mcu7t5v0__tiel
*CAP
1 segm[5] 0.000427458
2 *1248:ZN 0.000427458
*RES
1 *1248:ZN segm[5] 12.068 
*END

*D_NET *12 0.000834972
*CONN
*P segm[6] O
*I *1268:Z O *D gf180mcu_fd_sc_mcu7t5v0__buf_8
*CAP
1 segm[6] 0.000387158
2 *1268:Z 0.000387158
3 segm[6] segm[7] 6.0656e-05
*RES
1 *1268:Z segm[6] 11.86 
*END

*D_NET *13 0.00101161
*CONN
*P segm[7] O
*I *1269:Z O *D gf180mcu_fd_sc_mcu7t5v0__buf_8
*CAP
1 segm[7] 0.000475478
2 *1269:Z 0.000475478
3 segm[6] segm[7] 6.0656e-05
*RES
1 *1269:Z segm[7] 12.692 
*END

*D_NET *14 0.00107077
*CONN