*SPEF "ieee 1481-1999"
*DESIGN "ita34"
*DATE "11:11:11 Fri 11 11, 1111"
*VENDOR "OpenRCX"
*PROGRAM "Parallel Extraction"
*VERSION "1.0"
*DESIGN_FLOW "NAME_SCOPE LOCAL" "PIN_CAP NONE"
*DIVIDER /
*DELIMITER :
*BUS_DELIMITER []
*T_UNIT 1 NS
*C_UNIT 1 PF
*R_UNIT 1 OHM
*L_UNIT 1 HENRY

*NAME_MAP
*1 clk
*2 segm[0]
*3 segm[10]
*4 segm[11]
*5 segm[12]
*6 segm[13]
*7 segm[1]
*8 segm[2]
*9 segm[3]
*10 segm[4]
*11 segm[5]
*12 segm[6]
*13 segm[7]
*14 segm[8]
*15 segm[9]
*16 sel[0]
*17 sel[10]
*18 sel[11]
*19 sel[1]
*20 sel[2]
*21 sel[3]
*22 sel[4]
*23 sel[5]
*24 sel[6]
*25 sel[7]
*26 sel[8]
*27 sel[9]
*30 _000_
*31 _001_
*32 _002_
*33 _003_
*34 _004_
*35 _005_
*36 _006_
*37 _007_
*38 _008_
*39 _009_
*40 _010_
*41 _011_
*42 _012_
*43 _013_
*44 _014_
*45 _015_
*46 _016_
*47 _017_
*48 _018_
*49 _019_
*50 _020_
*51 _021_
*52 _022_
*53 _023_
*54 _024_
*55 _025_
*56 _026_
*57 _027_
*58 _028_
*59 _029_
*60 _030_
*61 _031_
*62 _032_
*63 _033_
*64 _034_
*65 _035_
*66 _036_
*67 _037_
*68 _038_
*69 _039_
*70 _040_
*71 _041_
*72 _042_
*73 _043_
*74 _044_
*75 _045_
*76 _046_
*77 _047_
*78 _048_
*79 _049_
*80 _050_
*81 _051_
*82 _052_
*83 _053_
*84 _054_
*85 _055_
*86 _056_
*87 _057_
*88 _058_
*89 _059_
*90 _060_
*91 _061_
*92 _062_
*93 _063_
*94 _064_
*95 _065_
*96 _066_
*97 _067_
*98 _068_
*99 _069_
*100 _070_
*101 _071_
*102 _072_
*103 _073_
*104 _074_
*105 _075_
*106 _076_
*107 _077_
*108 _078_
*109 _079_
*110 _080_
*111 _081_
*112 _082_
*113 _083_
*114 _084_
*115 _085_
*116 _086_
*117 _087_
*118 _088_
*119 _089_
*120 _090_
*121 _091_
*122 _092_
*123 _093_
*124 _094_
*125 _095_
*126 _096_
*127 _097_
*128 _098_
*129 _099_
*130 _100_
*131 _101_
*132 _102_
*133 _103_
*134 _104_
*135 _105_
*136 _106_
*137 _107_
*138 _108_
*139 _109_
*140 _110_
*141 _111_
*142 _112_
*143 _113_
*144 _114_
*145 _115_
*146 _116_
*147 _117_
*148 clknet_0_clk
*149 clknet_1_0__leaf_clk
*150 clknet_1_1__leaf_clk
*151 dut34\.count\[0\]
*152 dut34\.count\[1\]
*153 dut34\.count\[2\]
*154 dut34\.count\[3\]
*155 net1
*156 net10
*157 net11
*158 net12
*159 net13
*160 net14
*161 net15
*162 net16
*163 net17
*164 net18
*165 net19
*166 net2
*167 net20
*168 net21
*169 net22
*170 net23
*171 net24
*172 net25
*173 net26
*174 net3
*175 net4
*176 net5
*177 net6
*178 net7
*179 net8
*180 net9
*181 ANTENNA__236__CLK
*182 ANTENNA__237__CLK
*183 ANTENNA__238__CLK
*184 ANTENNA__239__CLK
*185 ANTENNA__240__CLK
*186 ANTENNA__241__CLK
*187 ANTENNA__242__CLK
*188 ANTENNA__243__CLK
*189 ANTENNA__244__CLK
*190 ANTENNA__245__CLK
*191 ANTENNA__246__CLK
*192 ANTENNA__247__CLK
*193 ANTENNA__248__CLK
*194 ANTENNA__249__CLK
*195 ANTENNA__250__CLK
*196 ANTENNA__251__CLK
*197 ANTENNA__252__CLK
*198 ANTENNA__253__CLK
*199 ANTENNA__254__CLK
*200 ANTENNA__255__CLK
*201 ANTENNA__256__CLK
*202 ANTENNA__257__CLK
*203 ANTENNA__258__CLK
*204 ANTENNA__259__CLK
*205 ANTENNA__260__CLK
*206 ANTENNA__261__CLK
*207 ANTENNA__262__CLK
*208 ANTENNA__263__CLK
*209 ANTENNA_clkbuf_0_clk_I
*210 FILLER_0_0_104
*211 FILLER_0_0_138
*212 FILLER_0_0_142
*213 FILLER_0_0_172
*214 FILLER_0_0_176
*215 FILLER_0_0_2
*216 FILLER_0_0_232
*217 FILLER_0_0_236
*218 FILLER_0_0_240
*219 FILLER_0_0_274
*220 FILLER_0_0_308
*221 FILLER_0_0_342
*222 FILLER_0_0_346
*223 FILLER_0_0_348
*224 FILLER_0_0_36
*225 FILLER_0_0_70
*226 FILLER_0_10_101
*227 FILLER_0_10_107
*228 FILLER_0_10_171
*229 FILLER_0_10_177
*230 FILLER_0_10_2
*231 FILLER_0_10_241
*232 FILLER_0_10_247
*233 FILLER_0_10_311
*234 FILLER_0_10_317
*235 FILLER_0_10_34
*236 FILLER_0_10_37
*237 FILLER_0_11_136
*238 FILLER_0_11_142
*239 FILLER_0_11_2
*240 FILLER_0_11_206
*241 FILLER_0_11_212
*242 FILLER_0_11_276
*243 FILLER_0_11_282
*244 FILLER_0_11_346
*245 FILLER_0_11_348
*246 FILLER_0_11_66
*247 FILLER_0_11_72
*248 FILLER_0_12_101
*249 FILLER_0_12_107
*250 FILLER_0_12_168
*251 FILLER_0_12_172
*252 FILLER_0_12_174
*253 FILLER_0_12_177
*254 FILLER_0_12_2
*255 FILLER_0_12_241
*256 FILLER_0_12_247
*257 FILLER_0_12_311
*258 FILLER_0_12_317
*259 FILLER_0_12_34
*260 FILLER_0_12_37
*261 FILLER_0_13_104
*262 FILLER_0_13_108
*263 FILLER_0_13_110
*264 FILLER_0_13_142
*265 FILLER_0_13_2
*266 FILLER_0_13_212
*267 FILLER_0_13_216
*268 FILLER_0_13_224
*269 FILLER_0_13_228
*270 FILLER_0_13_260
*271 FILLER_0_13_276
*272 FILLER_0_13_282
*273 FILLER_0_13_346
*274 FILLER_0_13_348
*275 FILLER_0_13_66
*276 FILLER_0_13_72
*277 FILLER_0_14_101
*278 FILLER_0_14_107
*279 FILLER_0_14_109
*280 FILLER_0_14_117
*281 FILLER_0_14_133
*282 FILLER_0_14_137
*283 FILLER_0_14_139
*284 FILLER_0_14_145
*285 FILLER_0_14_149
*286 FILLER_0_14_163
*287 FILLER_0_14_171
*288 FILLER_0_14_177
*289 FILLER_0_14_179
*290 FILLER_0_14_187
*291 FILLER_0_14_2
*292 FILLER_0_14_224
*293 FILLER_0_14_228
*294 FILLER_0_14_244
*295 FILLER_0_14_247
*296 FILLER_0_14_311
*297 FILLER_0_14_317
*298 FILLER_0_14_34
*299 FILLER_0_14_37
*300 FILLER_0_15_124
*301 FILLER_0_15_128
*302 FILLER_0_15_136
*303 FILLER_0_15_142
*304 FILLER_0_15_144
*305 FILLER_0_15_153
*306 FILLER_0_15_155
*307 FILLER_0_15_165
*308 FILLER_0_15_173
*309 FILLER_0_15_194
*310 FILLER_0_15_2
*311 FILLER_0_15_204
*312 FILLER_0_15_208
*313 FILLER_0_15_212
*314 FILLER_0_15_220
*315 FILLER_0_15_224
*316 FILLER_0_15_226
*317 FILLER_0_15_256
*318 FILLER_0_15_260
*319 FILLER_0_15_276
*320 FILLER_0_15_282
*321 FILLER_0_15_346
*322 FILLER_0_15_348
*323 FILLER_0_15_66
*324 FILLER_0_15_72
*325 FILLER_0_16_101
*326 FILLER_0_16_115
*327 FILLER_0_16_119
*328 FILLER_0_16_160
*329 FILLER_0_16_164
*330 FILLER_0_16_172
*331 FILLER_0_16_174
*332 FILLER_0_16_177
*333 FILLER_0_16_193
*334 FILLER_0_16_205
*335 FILLER_0_16_221
*336 FILLER_0_16_229
*337 FILLER_0_16_231
*338 FILLER_0_16_243
*339 FILLER_0_16_256
*340 FILLER_0_16_28
*341 FILLER_0_16_288
*342 FILLER_0_16_304
*343 FILLER_0_16_312
*344 FILLER_0_16_314
*345 FILLER_0_16_317
*346 FILLER_0_16_32
*347 FILLER_0_16_321
*348 FILLER_0_16_34
*349 FILLER_0_16_37
*350 FILLER_0_17_124
*351 FILLER_0_17_161
*352 FILLER_0_17_169
*353 FILLER_0_17_193
*354 FILLER_0_17_209
*355 FILLER_0_17_212
*356 FILLER_0_17_228
*357 FILLER_0_17_232
*358 FILLER_0_17_234
*359 FILLER_0_17_243
*360 FILLER_0_17_275
*361 FILLER_0_17_279
*362 FILLER_0_17_28
*363 FILLER_0_17_282
*364 FILLER_0_17_314
*365 FILLER_0_17_322
*366 FILLER_0_17_60
*367 FILLER_0_17_68
*368 FILLER_0_17_72
*369 FILLER_0_17_80
*370 FILLER_0_17_84
*371 FILLER_0_17_86
*372 FILLER_0_18_101
*373 FILLER_0_18_107
*374 FILLER_0_18_115
*375 FILLER_0_18_118
*376 FILLER_0_18_134
*377 FILLER_0_18_142
*378 FILLER_0_18_156
*379 FILLER_0_18_160
*380 FILLER_0_18_162
*381 FILLER_0_18_168
*382 FILLER_0_18_172
*383 FILLER_0_18_174
*384 FILLER_0_18_177
*385 FILLER_0_18_190
*386 FILLER_0_18_2
*387 FILLER_0_18_220
*388 FILLER_0_18_224
*389 FILLER_0_18_240
*390 FILLER_0_18_244
*391 FILLER_0_18_247
*392 FILLER_0_18_311
*393 FILLER_0_18_317
*394 FILLER_0_18_34
*395 FILLER_0_18_37
*396 FILLER_0_19_114
*397 FILLER_0_19_118
*398 FILLER_0_19_126
*399 FILLER_0_19_136
*400 FILLER_0_19_156
*401 FILLER_0_19_158
*402 FILLER_0_19_169
*403 FILLER_0_19_187
*404 FILLER_0_19_189
*405 FILLER_0_19_2
*406 FILLER_0_19_204
*407 FILLER_0_19_208
*408 FILLER_0_19_212
*409 FILLER_0_19_228
*410 FILLER_0_19_263
*411 FILLER_0_19_279
*412 FILLER_0_19_282
*413 FILLER_0_19_346
*414 FILLER_0_19_348
*415 FILLER_0_19_66
*416 FILLER_0_19_72
*417 FILLER_0_19_80
*418 FILLER_0_19_84
*419 FILLER_0_1_136
*420 FILLER_0_1_142
*421 FILLER_0_1_158
*422 FILLER_0_1_162
*423 FILLER_0_1_189
*424 FILLER_0_1_2
*425 FILLER_0_1_205
*426 FILLER_0_1_209
*427 FILLER_0_1_238
*428 FILLER_0_1_270
*429 FILLER_0_1_278
*430 FILLER_0_1_282
*431 FILLER_0_1_346
*432 FILLER_0_1_348
*433 FILLER_0_1_66
*434 FILLER_0_1_72
*435 FILLER_0_20_101
*436 FILLER_0_20_119
*437 FILLER_0_20_123
*438 FILLER_0_20_132
*439 FILLER_0_20_149
*440 FILLER_0_20_162
*441 FILLER_0_20_2
*442 FILLER_0_20_209
*443 FILLER_0_20_213
*444 FILLER_0_20_215
*445 FILLER_0_20_235
*446 FILLER_0_20_260
*447 FILLER_0_20_292
*448 FILLER_0_20_308
*449 FILLER_0_20_312
*450 FILLER_0_20_314
*451 FILLER_0_20_317
*452 FILLER_0_20_321
*453 FILLER_0_20_34
*454 FILLER_0_20_37
*455 FILLER_0_21_136
*456 FILLER_0_21_142
*457 FILLER_0_21_2
*458 FILLER_0_21_212
*459 FILLER_0_21_214
*460 FILLER_0_21_230
*461 FILLER_0_21_266
*462 FILLER_0_21_274
*463 FILLER_0_21_278
*464 FILLER_0_21_282
*465 FILLER_0_21_314
*466 FILLER_0_21_322
*467 FILLER_0_21_66
*468 FILLER_0_21_72
*469 FILLER_0_21_80
*470 FILLER_0_21_84
*471 FILLER_0_21_86
*472 FILLER_0_22_101
*473 FILLER_0_22_107
*474 FILLER_0_22_117
*475 FILLER_0_22_121
*476 FILLER_0_22_190
*477 FILLER_0_22_2
*478 FILLER_0_22_247
*479 FILLER_0_22_311
*480 FILLER_0_22_317
*481 FILLER_0_22_34
*482 FILLER_0_22_37
*483 FILLER_0_23_115
*484 FILLER_0_23_119
*485 FILLER_0_23_127
*486 FILLER_0_23_131
*487 FILLER_0_23_133
*488 FILLER_0_23_142
*489 FILLER_0_23_164
*490 FILLER_0_23_2
*491 FILLER_0_23_212
*492 FILLER_0_23_214
*493 FILLER_0_23_232
*494 FILLER_0_23_236
*495 FILLER_0_23_240
*496 FILLER_0_23_272
*497 FILLER_0_23_282
*498 FILLER_0_23_346
*499 FILLER_0_23_348
*500 FILLER_0_23_66
*501 FILLER_0_23_72
*502 FILLER_0_23_80
*503 FILLER_0_23_84
*504 FILLER_0_24_101
*505 FILLER_0_24_107
*506 FILLER_0_24_117
*507 FILLER_0_24_119
*508 FILLER_0_24_126
*509 FILLER_0_24_161
*510 FILLER_0_24_165
*511 FILLER_0_24_2
*512 FILLER_0_24_200
*513 FILLER_0_24_244
*514 FILLER_0_24_247
*515 FILLER_0_24_311
*516 FILLER_0_24_317
*517 FILLER_0_24_34
*518 FILLER_0_24_37
*519 FILLER_0_25_132
*520 FILLER_0_25_142
*521 FILLER_0_25_150
*522 FILLER_0_25_152
*523 FILLER_0_25_204
*524 FILLER_0_25_208
*525 FILLER_0_25_212
*526 FILLER_0_25_216
*527 FILLER_0_25_265
*528 FILLER_0_25_273
*529 FILLER_0_25_277
*530 FILLER_0_25_279
*531 FILLER_0_25_28
*532 FILLER_0_25_282
*533 FILLER_0_25_314
*534 FILLER_0_25_322
*535 FILLER_0_25_60
*536 FILLER_0_25_68
*537 FILLER_0_25_72
*538 FILLER_0_25_88
*539 FILLER_0_25_92
*540 FILLER_0_25_94
*541 FILLER_0_26_101
*542 FILLER_0_26_107
*543 FILLER_0_26_117
*544 FILLER_0_26_121
*545 FILLER_0_26_123
*546 FILLER_0_26_126
*547 FILLER_0_26_134
*548 FILLER_0_26_138
*549 FILLER_0_26_146
*550 FILLER_0_26_162
*551 FILLER_0_26_170
*552 FILLER_0_26_174
*553 FILLER_0_26_177
*554 FILLER_0_26_191
*555 FILLER_0_26_195
*556 FILLER_0_26_197
*557 FILLER_0_26_212
*558 FILLER_0_26_230
*559 FILLER_0_26_242
*560 FILLER_0_26_244
*561 FILLER_0_26_247
*562 FILLER_0_26_28
*563 FILLER_0_26_311
*564 FILLER_0_26_317
*565 FILLER_0_26_32
*566 FILLER_0_26_321
*567 FILLER_0_26_34
*568 FILLER_0_26_37
*569 FILLER_0_27_104
*570 FILLER_0_27_120
*571 FILLER_0_27_129
*572 FILLER_0_27_137
*573 FILLER_0_27_139
*574 FILLER_0_27_142
*575 FILLER_0_27_146
*576 FILLER_0_27_156
*577 FILLER_0_27_172
*578 FILLER_0_27_176
*579 FILLER_0_27_184
*580 FILLER_0_27_2
*581 FILLER_0_27_200
*582 FILLER_0_27_208
*583 FILLER_0_27_212
*584 FILLER_0_27_228
*585 FILLER_0_27_263
*586 FILLER_0_27_279
*587 FILLER_0_27_282
*588 FILLER_0_27_314
*589 FILLER_0_27_322
*590 FILLER_0_27_66
*591 FILLER_0_27_72
*592 FILLER_0_28_104
*593 FILLER_0_28_107
*594 FILLER_0_28_115
*595 FILLER_0_28_129
*596 FILLER_0_28_133
*597 FILLER_0_28_163
*598 FILLER_0_28_167
*599 FILLER_0_28_169
*600 FILLER_0_28_189
*601 FILLER_0_28_197
*602 FILLER_0_28_2
*603 FILLER_0_28_201
*604 FILLER_0_28_210
*605 FILLER_0_28_218
*606 FILLER_0_28_222
*607 FILLER_0_28_228
*608 FILLER_0_28_244
*609 FILLER_0_28_247
*610 FILLER_0_28_311
*611 FILLER_0_28_317
*612 FILLER_0_28_34
*613 FILLER_0_28_37
*614 FILLER_0_28_69
*615 FILLER_0_28_85
*616 FILLER_0_28_93
*617 FILLER_0_28_97
*618 FILLER_0_29_115
*619 FILLER_0_29_119
*620 FILLER_0_29_123
*621 FILLER_0_29_154
*622 FILLER_0_29_241
*623 FILLER_0_29_245
*624 FILLER_0_29_277
*625 FILLER_0_29_279
*626 FILLER_0_29_28
*627 FILLER_0_29_282
*628 FILLER_0_29_346
*629 FILLER_0_29_348
*630 FILLER_0_29_60
*631 FILLER_0_29_68
*632 FILLER_0_29_72
*633 FILLER_0_29_80
*634 FILLER_0_29_84
*635 FILLER_0_2_101
*636 FILLER_0_2_107
*637 FILLER_0_2_139
*638 FILLER_0_2_143
*639 FILLER_0_2_171
*640 FILLER_0_2_177
*641 FILLER_0_2_2
*642 FILLER_0_2_241
*643 FILLER_0_2_247
*644 FILLER_0_2_311
*645 FILLER_0_2_317
*646 FILLER_0_2_34
*647 FILLER_0_2_37
*648 FILLER_0_30_101
*649 FILLER_0_30_107
*650 FILLER_0_30_111
*651 FILLER_0_30_113
*652 FILLER_0_30_118
*653 FILLER_0_30_156
*654 FILLER_0_30_160
*655 FILLER_0_30_168
*656 FILLER_0_30_2
*657 FILLER_0_30_225
*658 FILLER_0_30_229
*659 FILLER_0_30_247
*660 FILLER_0_30_311
*661 FILLER_0_30_317
*662 FILLER_0_30_321
*663 FILLER_0_30_34
*664 FILLER_0_30_37
*665 FILLER_0_31_126
*666 FILLER_0_31_130
*667 FILLER_0_31_138
*668 FILLER_0_31_142
*669 FILLER_0_31_158
*670 FILLER_0_31_166
*671 FILLER_0_31_168
*672 FILLER_0_31_198
*673 FILLER_0_31_2
*674 FILLER_0_31_202
*675 FILLER_0_31_216
*676 FILLER_0_31_224
*677 FILLER_0_31_256
*678 FILLER_0_31_272
*679 FILLER_0_31_282
*680 FILLER_0_31_346
*681 FILLER_0_31_348
*682 FILLER_0_31_66
*683 FILLER_0_31_72
*684 FILLER_0_31_88
*685 FILLER_0_31_96
*686 FILLER_0_32_101
*687 FILLER_0_32_107
*688 FILLER_0_32_171
*689 FILLER_0_32_177
*690 FILLER_0_32_185
*691 FILLER_0_32_2
*692 FILLER_0_32_217
*693 FILLER_0_32_233
*694 FILLER_0_32_241
*695 FILLER_0_32_247
*696 FILLER_0_32_311
*697 FILLER_0_32_317
*698 FILLER_0_32_34
*699 FILLER_0_32_37
*700 FILLER_0_33_136
*701 FILLER_0_33_142
*702 FILLER_0_33_2
*703 FILLER_0_33_206
*704 FILLER_0_33_212
*705 FILLER_0_33_276
*706 FILLER_0_33_282
*707 FILLER_0_33_346
*708 FILLER_0_33_348
*709 FILLER_0_33_66
*710 FILLER_0_33_72
*711 FILLER_0_34_101
*712 FILLER_0_34_107
*713 FILLER_0_34_171
*714 FILLER_0_34_177
*715 FILLER_0_34_2
*716 FILLER_0_34_241
*717 FILLER_0_34_247
*718 FILLER_0_34_311
*719 FILLER_0_34_317
*720 FILLER_0_34_34
*721 FILLER_0_34_37
*722 FILLER_0_35_136
*723 FILLER_0_35_142
*724 FILLER_0_35_2
*725 FILLER_0_35_206
*726 FILLER_0_35_212
*727 FILLER_0_35_276
*728 FILLER_0_35_282
*729 FILLER_0_35_346
*730 FILLER_0_35_348
*731 FILLER_0_35_66
*732 FILLER_0_35_72
*733 FILLER_0_36_101
*734 FILLER_0_36_107
*735 FILLER_0_36_171
*736 FILLER_0_36_177
*737 FILLER_0_36_2
*738 FILLER_0_36_241
*739 FILLER_0_36_247
*740 FILLER_0_36_311
*741 FILLER_0_36_317
*742 FILLER_0_36_34
*743 FILLER_0_36_37
*744 FILLER_0_37_136
*745 FILLER_0_37_142
*746 FILLER_0_37_2
*747 FILLER_0_37_206
*748 FILLER_0_37_212
*749 FILLER_0_37_276
*750 FILLER_0_37_282
*751 FILLER_0_37_346
*752 FILLER_0_37_348
*753 FILLER_0_37_66
*754 FILLER_0_37_72
*755 FILLER_0_38_101
*756 FILLER_0_38_107
*757 FILLER_0_38_171
*758 FILLER_0_38_177
*759 FILLER_0_38_2
*760 FILLER_0_38_241
*761 FILLER_0_38_247
*762 FILLER_0_38_311
*763 FILLER_0_38_317
*764 FILLER_0_38_34
*765 FILLER_0_38_37
*766 FILLER_0_39_136
*767 FILLER_0_39_142
*768 FILLER_0_39_2
*769 FILLER_0_39_206
*770 FILLER_0_39_212
*771 FILLER_0_39_276
*772 FILLER_0_39_282
*773 FILLER_0_39_346
*774 FILLER_0_39_348
*775 FILLER_0_39_66
*776 FILLER_0_39_72
*777 FILLER_0_3_136
*778 FILLER_0_3_142
*779 FILLER_0_3_2
*780 FILLER_0_3_206
*781 FILLER_0_3_212
*782 FILLER_0_3_276
*783 FILLER_0_3_282
*784 FILLER_0_3_346
*785 FILLER_0_3_348
*786 FILLER_0_3_66
*787 FILLER_0_3_72
*788 FILLER_0_40_101
*789 FILLER_0_40_107
*790 FILLER_0_40_171
*791 FILLER_0_40_177
*792 FILLER_0_40_2
*793 FILLER_0_40_241
*794 FILLER_0_40_247
*795 FILLER_0_40_311
*796 FILLER_0_40_317
*797 FILLER_0_40_34
*798 FILLER_0_40_37
*799 FILLER_0_41_136
*800 FILLER_0_41_142
*801 FILLER_0_41_2
*802 FILLER_0_41_206
*803 FILLER_0_41_212
*804 FILLER_0_41_276
*805 FILLER_0_41_282
*806 FILLER_0_41_346
*807 FILLER_0_41_348
*808 FILLER_0_41_66
*809 FILLER_0_41_72
*810 FILLER_0_42_101
*811 FILLER_0_42_107
*812 FILLER_0_42_123
*813 FILLER_0_42_153
*814 FILLER_0_42_169
*815 FILLER_0_42_173
*816 FILLER_0_42_177
*817 FILLER_0_42_2
*818 FILLER_0_42_241
*819 FILLER_0_42_247
*820 FILLER_0_42_311
*821 FILLER_0_42_317
*822 FILLER_0_42_34
*823 FILLER_0_42_37
*824 FILLER_0_43_136
*825 FILLER_0_43_142
*826 FILLER_0_43_150
*827 FILLER_0_43_154
*828 FILLER_0_43_156
*829 FILLER_0_43_183
*830 FILLER_0_43_199
*831 FILLER_0_43_2
*832 FILLER_0_43_207
*833 FILLER_0_43_209
*834 FILLER_0_43_212
*835 FILLER_0_43_216
*836 FILLER_0_43_243
*837 FILLER_0_43_275
*838 FILLER_0_43_279
*839 FILLER_0_43_282
*840 FILLER_0_43_346
*841 FILLER_0_43_348
*842 FILLER_0_43_66
*843 FILLER_0_43_72
*844 FILLER_0_44_104
*845 FILLER_0_44_138
*846 FILLER_0_44_142
*847 FILLER_0_44_172
*848 FILLER_0_44_176
*849 FILLER_0_44_2
*850 FILLER_0_44_232
*851 FILLER_0_44_236
*852 FILLER_0_44_266
*853 FILLER_0_44_270
*854 FILLER_0_44_274
*855 FILLER_0_44_308
*856 FILLER_0_44_342
*857 FILLER_0_44_346
*858 FILLER_0_44_348
*859 FILLER_0_44_36
*860 FILLER_0_44_70
*861 FILLER_0_4_101
*862 FILLER_0_4_107
*863 FILLER_0_4_171
*864 FILLER_0_4_177
*865 FILLER_0_4_2
*866 FILLER_0_4_241
*867 FILLER_0_4_247
*868 FILLER_0_4_311
*869 FILLER_0_4_317
*870 FILLER_0_4_34
*871 FILLER_0_4_37
*872 FILLER_0_5_136
*873 FILLER_0_5_142
*874 FILLER_0_5_2
*875 FILLER_0_5_206
*876 FILLER_0_5_212
*877 FILLER_0_5_276
*878 FILLER_0_5_282
*879 FILLER_0_5_346
*880 FILLER_0_5_348
*881 FILLER_0_5_66
*882 FILLER_0_5_72
*883 FILLER_0_6_101
*884 FILLER_0_6_107
*885 FILLER_0_6_171
*886 FILLER_0_6_177
*887 FILLER_0_6_2
*888 FILLER_0_6_241
*889 FILLER_0_6_247
*890 FILLER_0_6_311
*891 FILLER_0_6_317
*892 FILLER_0_6_34
*893 FILLER_0_6_37
*894 FILLER_0_7_136
*895 FILLER_0_7_142
*896 FILLER_0_7_2
*897 FILLER_0_7_206
*898 FILLER_0_7_212
*899 FILLER_0_7_276
*900 FILLER_0_7_282
*901 FILLER_0_7_346
*902 FILLER_0_7_348
*903 FILLER_0_7_66
*904 FILLER_0_7_72
*905 FILLER_0_8_101
*906 FILLER_0_8_107
*907 FILLER_0_8_171
*908 FILLER_0_8_177
*909 FILLER_0_8_2
*910 FILLER_0_8_241
*911 FILLER_0_8_247
*912 FILLER_0_8_311
*913 FILLER_0_8_317
*914 FILLER_0_8_34
*915 FILLER_0_8_37
*916 FILLER_0_9_136
*917 FILLER_0_9_142
*918 FILLER_0_9_2
*919 FILLER_0_9_206
*920 FILLER_0_9_212
*921 FILLER_0_9_276
*922 FILLER_0_9_282
*923 FILLER_0_9_346
*924 FILLER_0_9_348
*925 FILLER_0_9_66
*926 FILLER_0_9_72
*927 PHY_EDGE_ROW_0_Left_45
*928 PHY_EDGE_ROW_0_Right_0
*929 PHY_EDGE_ROW_10_Left_55
*930 PHY_EDGE_ROW_10_Right_10
*931 PHY_EDGE_ROW_11_Left_56
*932 PHY_EDGE_ROW_11_Right_11
*933 PHY_EDGE_ROW_12_Left_57
*934 PHY_EDGE_ROW_12_Right_12
*935 PHY_EDGE_ROW_13_Left_58
*936 PHY_EDGE_ROW_13_Right_13
*937 PHY_EDGE_ROW_14_Left_59
*938 PHY_EDGE_ROW_14_Right_14
*939 PHY_EDGE_ROW_15_Left_60
*940 PHY_EDGE_ROW_15_Right_15
*941 PHY_EDGE_ROW_16_Left_61
*942 PHY_EDGE_ROW_16_Right_16
*943 PHY_EDGE_ROW_17_Left_62
*944 PHY_EDGE_ROW_17_Right_17
*945 PHY_EDGE_ROW_18_Left_63
*946 PHY_EDGE_ROW_18_Right_18
*947 PHY_EDGE_ROW_19_Left_64
*948 PHY_EDGE_ROW_19_Right_19
*949 PHY_EDGE_ROW_1_Left_46
*950 PHY_EDGE_ROW_1_Right_1
*951 PHY_EDGE_ROW_20_Left_65
*952 PHY_EDGE_ROW_20_Right_20
*953 PHY_EDGE_ROW_21_Left_66
*954 PHY_EDGE_ROW_21_Right_21
*955 PHY_EDGE_ROW_22_Left_67
*956 PHY_EDGE_ROW_22_Right_22
*957 PHY_EDGE_ROW_23_Left_68
*958 PHY_EDGE_ROW_23_Right_23
*959 PHY_EDGE_ROW_24_Left_69
*960 PHY_EDGE_ROW_24_Right_24
*961 PHY_EDGE_ROW_25_Left_70
*962 PHY_EDGE_ROW_25_Right_25
*963 PHY_EDGE_ROW_26_Left_71
*964 PHY_EDGE_ROW_26_Right_26
*965 PHY_EDGE_ROW_27_Left_72
*966 PHY_EDGE_ROW_27_Right_27
*967 PHY_EDGE_ROW_28_Left_73
*968 PHY_EDGE_ROW_28_Right_28
*969 PHY_EDGE_ROW_29_Left_74
*970 PHY_EDGE_ROW_29_Right_29
*971 PHY_EDGE_ROW_2_Left_47
*972 PHY_EDGE_ROW_2_Right_2
*973 PHY_EDGE_ROW_30_Left_75
*974 PHY_EDGE_ROW_30_Right_30
*975 PHY_EDGE_ROW_31_Left_76
*976 PHY_EDGE_ROW_31_Right_31
*977 PHY_EDGE_ROW_32_Left_77
*978 PHY_EDGE_ROW_32_Right_32
*979 PHY_EDGE_ROW_33_Left_78
*980 PHY_EDGE_ROW_33_Right_33
*981 PHY_EDGE_ROW_34_Left_79
*982 PHY_EDGE_ROW_34_Right_34
*983 PHY_EDGE_ROW_35_Left_80
*984 PHY_EDGE_ROW_35_Right_35
*985 PHY_EDGE_ROW_36_Left_81
*986 PHY_EDGE_ROW_36_Right_36
*987 PHY_EDGE_ROW_37_Left_82
*988 PHY_EDGE_ROW_37_Right_37
*989 PHY_EDGE_ROW_38_Left_83
*990 PHY_EDGE_ROW_38_Right_38
*991 PHY_EDGE_ROW_39_Left_84
*992 PHY_EDGE_ROW_39_Right_39
*993 PHY_EDGE_ROW_3_Left_48
*994 PHY_EDGE_ROW_3_Right_3
*995 PHY_EDGE_ROW_40_Left_85
*996 PHY_EDGE_ROW_40_Right_40
*997 PHY_EDGE_ROW_41_Left_86
*998 PHY_EDGE_ROW_41_Right_41
*999 PHY_EDGE_ROW_42_Left_87
*1000 PHY_EDGE_ROW_42_Right_42
*1001 PHY_EDGE_ROW_43_Left_88
*1002 PHY_EDGE_ROW_43_Right_43
*1003 PHY_EDGE_ROW_44_Left_89
*1004 PHY_EDGE_ROW_44_Right_44
*1005 PHY_EDGE_ROW_4_Left_49
*1006 PHY_EDGE_ROW_4_Right_4
*1007 PHY_EDGE_ROW_5_Left_50
*1008 PHY_EDGE_ROW_5_Right_5
*1009 PHY_EDGE_ROW_6_Left_51
*1010 PHY_EDGE_ROW_6_Right_6
*1011 PHY_EDGE_ROW_7_Left_52
*1012 PHY_EDGE_ROW_7_Right_7
*1013 PHY_EDGE_ROW_8_Left_53
*1014 PHY_EDGE_ROW_8_Right_8
*1015 PHY_EDGE_ROW_9_Left_54
*1016 PHY_EDGE_ROW_9_Right_9
*1017 TAP_TAPCELL_ROW_0_90
*1018 TAP_TAPCELL_ROW_0_91
*1019 TAP_TAPCELL_ROW_0_92
*1020 TAP_TAPCELL_ROW_0_93
*1021 TAP_TAPCELL_ROW_0_94
*1022 TAP_TAPCELL_ROW_0_95
*1023 TAP_TAPCELL_ROW_0_96
*1024 TAP_TAPCELL_ROW_0_97
*1025 TAP_TAPCELL_ROW_0_98
*1026 TAP_TAPCELL_ROW_0_99
*1027 TAP_TAPCELL_ROW_10_140
*1028 TAP_TAPCELL_ROW_10_141
*1029 TAP_TAPCELL_ROW_10_142
*1030 TAP_TAPCELL_ROW_10_143
*1031 TAP_TAPCELL_ROW_10_144
*1032 TAP_TAPCELL_ROW_11_145
*1033 TAP_TAPCELL_ROW_11_146
*1034 TAP_TAPCELL_ROW_11_147
*1035 TAP_TAPCELL_ROW_11_148
*1036 TAP_TAPCELL_ROW_12_149
*1037 TAP_TAPCELL_ROW_12_150
*1038 TAP_TAPCELL_ROW_12_151
*1039 TAP_TAPCELL_ROW_12_152
*1040 TAP_TAPCELL_ROW_12_153
*1041 TAP_TAPCELL_ROW_13_154
*1042 TAP_TAPCELL_ROW_13_155
*1043 TAP_TAPCELL_ROW_13_156
*1044 TAP_TAPCELL_ROW_13_157
*1045 TAP_TAPCELL_ROW_14_158
*1046 TAP_TAPCELL_ROW_14_159
*1047 TAP_TAPCELL_ROW_14_160
*1048 TAP_TAPCELL_ROW_14_161
*1049 TAP_TAPCELL_ROW_14_162
*1050 TAP_TAPCELL_ROW_15_163
*1051 TAP_TAPCELL_ROW_15_164
*1052 TAP_TAPCELL_ROW_15_165
*1053 TAP_TAPCELL_ROW_15_166
*1054 TAP_TAPCELL_ROW_16_167
*1055 TAP_TAPCELL_ROW_16_168
*1056 TAP_TAPCELL_ROW_16_169
*1057 TAP_TAPCELL_ROW_16_170
*1058 TAP_TAPCELL_ROW_16_171
*1059 TAP_TAPCELL_ROW_17_172
*1060 TAP_TAPCELL_ROW_17_173
*1061 TAP_TAPCELL_ROW_17_174
*1062 TAP_TAPCELL_ROW_17_175
*1063 TAP_TAPCELL_ROW_18_176
*1064 TAP_TAPCELL_ROW_18_177
*1065 TAP_TAPCELL_ROW_18_178
*1066 TAP_TAPCELL_ROW_18_179
*1067 TAP_TAPCELL_ROW_18_180
*1068 TAP_TAPCELL_ROW_19_181
*1069 TAP_TAPCELL_ROW_19_182
*1070 TAP_TAPCELL_ROW_19_183
*1071 TAP_TAPCELL_ROW_19_184
*1072 TAP_TAPCELL_ROW_1_100
*1073 TAP_TAPCELL_ROW_1_101
*1074 TAP_TAPCELL_ROW_1_102
*1075 TAP_TAPCELL_ROW_1_103
*1076 TAP_TAPCELL_ROW_20_185
*1077 TAP_TAPCELL_ROW_20_186
*1078 TAP_TAPCELL_ROW_20_187
*1079 TAP_TAPCELL_ROW_20_188
*1080 TAP_TAPCELL_ROW_20_189
*1081 TAP_TAPCELL_ROW_21_190
*1082 TAP_TAPCELL_ROW_21_191
*1083 TAP_TAPCELL_ROW_21_192
*1084 TAP_TAPCELL_ROW_21_193
*1085 TAP_TAPCELL_ROW_22_194
*1086 TAP_TAPCELL_ROW_22_195
*1087 TAP_TAPCELL_ROW_22_196
*1088 TAP_TAPCELL_ROW_22_197
*1089 TAP_TAPCELL_ROW_22_198
*1090 TAP_TAPCELL_ROW_23_199
*1091 TAP_TAPCELL_ROW_23_200
*1092 TAP_TAPCELL_ROW_23_201
*1093 TAP_TAPCELL_ROW_23_202
*1094 TAP_TAPCELL_ROW_24_203
*1095 TAP_TAPCELL_ROW_24_204
*1096 TAP_TAPCELL_ROW_24_205
*1097 TAP_TAPCELL_ROW_24_206
*1098 TAP_TAPCELL_ROW_24_207
*1099 TAP_TAPCELL_ROW_25_208
*1100 TAP_TAPCELL_ROW_25_209
*1101 TAP_TAPCELL_ROW_25_210
*1102 TAP_TAPCELL_ROW_25_211
*1103 TAP_TAPCELL_ROW_26_212
*1104 TAP_TAPCELL_ROW_26_213
*1105 TAP_TAPCELL_ROW_26_214
*1106 TAP_TAPCELL_ROW_26_215
*1107 TAP_TAPCELL_ROW_26_216
*1108 TAP_TAPCELL_ROW_27_217
*1109 TAP_TAPCELL_ROW_27_218
*1110 TAP_TAPCELL_ROW_27_219
*1111 TAP_TAPCELL_ROW_27_220
*1112 TAP_TAPCELL_ROW_28_221
*1113 TAP_TAPCELL_ROW_28_222
*1114 TAP_TAPCELL_ROW_28_223
*1115 TAP_TAPCELL_ROW_28_224
*1116 TAP_TAPCELL_ROW_28_225
*1117 TAP_TAPCELL_ROW_29_226
*1118 TAP_TAPCELL_ROW_29_227
*1119 TAP_TAPCELL_ROW_29_228
*1120 TAP_TAPCELL_ROW_29_229
*1121 TAP_TAPCELL_ROW_2_104
*1122 TAP_TAPCELL_ROW_2_105
*1123 TAP_TAPCELL_ROW_2_106
*1124 TAP_TAPCELL_ROW_2_107
*1125 TAP_TAPCELL_ROW_2_108
*1126 TAP_TAPCELL_ROW_30_230
*1127 TAP_TAPCELL_ROW_30_231
*1128 TAP_TAPCELL_ROW_30_232
*1129 TAP_TAPCELL_ROW_30_233
*1130 TAP_TAPCELL_ROW_30_234
*1131 TAP_TAPCELL_ROW_31_235
*1132 TAP_TAPCELL_ROW_31_236
*1133 TAP_TAPCELL_ROW_31_237
*1134 TAP_TAPCELL_ROW_31_238
*1135 TAP_TAPCELL_ROW_32_239
*1136 TAP_TAPCELL_ROW_32_240
*1137 TAP_TAPCELL_ROW_32_241
*1138 TAP_TAPCELL_ROW_32_242
*1139 TAP_TAPCELL_ROW_32_243
*1140 TAP_TAPCELL_ROW_33_244
*1141 TAP_TAPCELL_ROW_33_245
*1142 TAP_TAPCELL_ROW_33_246
*1143 TAP_TAPCELL_ROW_33_247
*1144 TAP_TAPCELL_ROW_34_248
*1145 TAP_TAPCELL_ROW_34_249
*1146 TAP_TAPCELL_ROW_34_250
*1147 TAP_TAPCELL_ROW_34_251
*1148 TAP_TAPCELL_ROW_34_252
*1149 TAP_TAPCELL_ROW_35_253
*1150 TAP_TAPCELL_ROW_35_254
*1151 TAP_TAPCELL_ROW_35_255
*1152 TAP_TAPCELL_ROW_35_256
*1153 TAP_TAPCELL_ROW_36_257
*1154 TAP_TAPCELL_ROW_36_258
*1155 TAP_TAPCELL_ROW_36_259
*1156 TAP_TAPCELL_ROW_36_260
*1157 TAP_TAPCELL_ROW_36_261
*1158 TAP_TAPCELL_ROW_37_262
*1159 TAP_TAPCELL_ROW_37_263
*1160 TAP_TAPCELL_ROW_37_264
*1161 TAP_TAPCELL_ROW_37_265
*1162 TAP_TAPCELL_ROW_38_266
*1163 TAP_TAPCELL_ROW_38_267
*1164 TAP_TAPCELL_ROW_38_268
*1165 TAP_TAPCELL_ROW_38_269
*1166 TAP_TAPCELL_ROW_38_270
*1167 TAP_TAPCELL_ROW_39_271
*1168 TAP_TAPCELL_ROW_39_272
*1169 TAP_TAPCELL_ROW_39_273
*1170 TAP_TAPCELL_ROW_39_274
*1171 TAP_TAPCELL_ROW_3_109
*1172 TAP_TAPCELL_ROW_3_110
*1173 TAP_TAPCELL_ROW_3_111
*1174 TAP_TAPCELL_ROW_3_112
*1175 TAP_TAPCELL_ROW_40_275
*1176 TAP_TAPCELL_ROW_40_276
*1177 TAP_TAPCELL_ROW_40_277
*1178 TAP_TAPCELL_ROW_40_278
*1179 TAP_TAPCELL_ROW_40_279
*1180 TAP_TAPCELL_ROW_41_280
*1181 TAP_TAPCELL_ROW_41_281
*1182 TAP_TAPCELL_ROW_41_282
*1183 TAP_TAPCELL_ROW_41_283
*1184 TAP_TAPCELL_ROW_42_284
*1185 TAP_TAPCELL_ROW_42_285
*1186 TAP_TAPCELL_ROW_42_286
*1187 TAP_TAPCELL_ROW_42_287
*1188 TAP_TAPCELL_ROW_42_288
*1189 TAP_TAPCELL_ROW_43_289
*1190 TAP_TAPCELL_ROW_43_290
*1191 TAP_TAPCELL_ROW_43_291
*1192 TAP_TAPCELL_ROW_43_292
*1193 TAP_TAPCELL_ROW_44_293
*1194 TAP_TAPCELL_ROW_44_294
*1195 TAP_TAPCELL_ROW_44_295
*1196 TAP_TAPCELL_ROW_44_296
*1197 TAP_TAPCELL_ROW_44_297
*1198 TAP_TAPCELL_ROW_44_298
*1199 TAP_TAPCELL_ROW_44_299
*1200 TAP_TAPCELL_ROW_44_300
*1201 TAP_TAPCELL_ROW_44_301
*1202 TAP_TAPCELL_ROW_44_302
*1203 TAP_TAPCELL_ROW_4_113
*1204 TAP_TAPCELL_ROW_4_114
*1205 TAP_TAPCELL_ROW_4_115
*1206 TAP_TAPCELL_ROW_4_116
*1207 TAP_TAPCELL_ROW_4_117
*1208 TAP_TAPCELL_ROW_5_118
*1209 TAP_TAPCELL_ROW_5_119
*1210 TAP_TAPCELL_ROW_5_120
*1211 TAP_TAPCELL_ROW_5_121
*1212 TAP_TAPCELL_ROW_6_122
*1213 TAP_TAPCELL_ROW_6_123
*1214 TAP_TAPCELL_ROW_6_124
*1215 TAP_TAPCELL_ROW_6_125
*1216 TAP_TAPCELL_ROW_6_126
*1217 TAP_TAPCELL_ROW_7_127
*1218 TAP_TAPCELL_ROW_7_128
*1219 TAP_TAPCELL_ROW_7_129
*1220 TAP_TAPCELL_ROW_7_130
*1221 TAP_TAPCELL_ROW_8_131
*1222 TAP_TAPCELL_ROW_8_132
*1223 TAP_TAPCELL_ROW_8_133
*1224 TAP_TAPCELL_ROW_8_134
*1225 TAP_TAPCELL_ROW_8_135
*1226 TAP_TAPCELL_ROW_9_136
*1227 TAP_TAPCELL_ROW_9_137
*1228 TAP_TAPCELL_ROW_9_138
*1229 TAP_TAPCELL_ROW_9_139
*1230 _118_
*1231 _119_
*1232 _120_
*1233 _121_
*1234 _122_
*1235 _123_
*1236 _124_
*1237 _125_
*1238 _126_
*1239 _127_
*1240 _128_
*1241 _129_
*1242 _130_
*1243 _131_
*1244 _132_
*1245 _133_
*1246 _134_
*1247 _135_
*1248 _136_
*1249 _137_
*1250 _138_
*1251 _139_
*1252 _140_
*1253 _141_
*1254 _142_
*1255 _143_
*1256 _144_
*1257 _145_
*1258 _146_
*1259 _147_
*1260 _148_
*1261 _149_
*1262 _150_
*1263 _151_
*1264 _152_
*1265 _153_
*1266 _154_
*1267 _155_
*1268 _156_
*1269 _157_
*1270 _158_
*1271 _159_
*1272 _160_
*1273 _161_
*1274 _162_
*1275 _163_
*1276 _164_
*1277 _165_
*1278 _166_
*1279 _167_
*1280 _168_
*1281 _169_
*1282 _170_
*1283 _171_
*1284 _172_
*1285 _173_
*1286 _174_
*1287 _175_
*1288 _176_
*1289 _177_
*1290 _178_
*1291 _179_
*1292 _180_
*1293 _181_
*1294 _182_
*1295 _183_
*1296 _184_
*1297 _185_
*1298 _186_
*1299 _187_
*1300 _188_
*1301 _189_
*1302 _190_
*1303 _191_
*1304 _192_
*1305 _193_
*1306 _194_
*1307 _195_
*1308 _196_
*1309 _197_
*1310 _198_
*1311 _199_
*1312 _200_
*1313 _201_
*1314 _202_
*1315 _203_
*1316 _204_
*1317 _205_
*1318 _206_
*1319 _207_
*1320 _208_
*1321 _209_
*1322 _210_
*1323 _211_
*1324 _212_
*1325 _213_
*1326 _214_
*1327 _215_
*1328 _216_
*1329 _217_
*1330 _218_
*1331 _219_
*1332 _220_
*1333 _221_
*1334 _222_
*1335 _223_
*1336 _224_
*1337 _225_
*1338 _226_
*1339 _227_
*1340 _228_
*1341 _229_
*1342 _230_
*1343 _231_
*1344 _232_
*1345 _233_
*1346 _234_
*1347 _235_
*1348 _236_
*1349 _237_
*1350 _238_
*1351 _239_
*1352 _240_
*1353 _241_
*1354 _242_
*1355 _243_
*1356 _244_
*1357 _245_
*1358 _246_
*1359 _247_
*1360 _248_
*1361 _249_
*1362 _250_
*1363 _251_
*1364 _252_
*1365 _253_
*1366 _254_
*1367 _255_
*1368 _256_
*1369 _257_
*1370 _258_
*1371 _259_
*1372 _260_
*1373 _261_
*1374 _262_
*1375 _263_
*1376 _264_
*1377 _265_
*1378 clkbuf_0_clk
*1379 clkbuf_1_0__f_clk
*1380 clkbuf_1_1__f_clk
*1381 output1
*1382 output10
*1383 output11
*1384 output12
*1385 output13
*1386 output14
*1387 output15
*1388 output16
*1389 output17
*1390 output18
*1391 output19
*1392 output2
*1393 output20
*1394 output21
*1395 output22
*1396 output23
*1397 output24
*1398 output25
*1399 output26
*1400 output3
*1401 output4
*1402 output5
*1403 output6
*1404 output7
*1405 output8
*1406 output9

*PORTS
clk I
segm[0] O
segm[10] O
segm[11] O
segm[12] O
segm[13] O
segm[1] O
segm[2] O
segm[3] O
segm[4] O
segm[5] O
segm[6] O
segm[7] O
segm[8] O
segm[9] O
sel[0] O
sel[10] O
sel[11] O
sel[1] O
sel[2] O
sel[3] O
sel[4] O
sel[5] O
sel[6] O
sel[7] O
sel[8] O
sel[9] O

*D_NET *1 0.0132065
*CONN
*P clk I
*I *1378:I I *D gf180mcu_fd_sc_mcu7t5v0__clkbuf_16
*I *209:I I *D gf180mcu_fd_sc_mcu7t5v0__antenna
*CAP
1 clk 0.00473152
2 *1378:I 0.000188108
3 *209:I 0
4 *1:13 0.00491963
5 *1378:I *1275:A1 7.83779e-05
6 *1378:I *1276:A2 0.000177217
7 *1378:I *1276:A3 0.000661941
8 *1378:I *1333:A3 1.94427e-05
9 *1378:I *60:25 0.000315086
10 *1378:I *139:12 0.000160523
11 *1:13 *1263:A2 0.000480772
12 *1:13 *1276:A2 0.000162871
13 *1:13 *1354:D 0
14 *1:13 *1404:I 9.26705e-05
15 *1:13 *36:25 0
16 *1:13 *119:17 0.000342995
17 *1:13 *139:12 0.000297023
18 *1:13 *152:21 0.000578336
*RES
1 clk *1:13 42.478 
2 *1:13 *209:I 9 
3 *1:13 *1378:I 11.888 
*END

*D_NET *2 0.000469555
*CONN
*P segm[0] O
*I *1381:Z O *D gf180mcu_fd_sc_mcu7t5v0__buf_8
*CAP
1 segm[0] 0.000201325
2 *1381:Z 0.000201325
3 segm[0] sel[3] 6.69047e-05
*RES
1 *1381:Z segm[0] 10.71 
*END

*D_NET *3 0.000735
*CONN
*P segm[10] O
*I *1392:Z O *D gf180mcu_fd_sc_mcu7t5v0__buf_8
*CAP
1 segm[10] 0.000334047
2 *1392:Z 0.000334047
3 segm[10] sel[4] 6.69047e-05
*RES
1 *1392:Z segm[10] 11.394 