*SPEF "ieee 1481-1999"
*DESIGN "ita38"
*DATE "11:11:11 Fri 11 11, 1111"
*VENDOR "OpenRCX"
*PROGRAM "Parallel Extraction"
*VERSION "1.0"
*DESIGN_FLOW "NAME_SCOPE LOCAL" "PIN_CAP NONE"
*DIVIDER /
*DELIMITER :
*BUS_DELIMITER []
*T_UNIT 1 NS
*C_UNIT 1 PF
*R_UNIT 1 OHM
*L_UNIT 1 HENRY

*NAME_MAP
*1 clk
*2 net25
*3 segm[10]
*4 segm[11]
*5 segm[12]
*6 segm[13]
*7 segm[1]
*8 net26
*9 segm[3]
*10 segm[4]
*11 segm[5]
*12 segm[6]
*13 segm[7]
*14 segm[8]
*15 segm[9]
*16 sel[0]
*17 sel[10]
*18 sel[11]
*19 sel[1]
*20 sel[2]
*21 sel[3]
*22 sel[4]
*23 sel[5]
*24 sel[6]
*25 sel[7]
*26 sel[8]
*27 sel[9]
*30 _000_
*31 _001_
*32 _002_
*33 _003_
*34 _004_
*35 _005_
*36 _006_
*37 _007_
*38 _008_
*39 _009_
*40 _010_
*41 _011_
*42 _012_
*43 _013_
*44 _014_
*45 _015_
*46 _016_
*47 _017_
*48 _018_
*49 _019_
*50 _020_
*51 _021_
*52 _022_
*53 _023_
*54 _024_
*55 _025_
*56 _026_
*57 _027_
*58 _028_
*59 _029_
*60 _030_
*61 _031_
*62 _032_
*63 _033_
*64 _034_
*65 _035_
*66 _036_
*67 _037_
*68 _038_
*69 _039_
*70 _040_
*71 _041_
*72 _042_
*73 _043_
*74 _044_
*75 _045_
*76 _046_
*77 _047_
*78 _048_
*79 _049_
*80 _050_
*81 _051_
*82 _052_
*83 _053_
*84 _054_
*85 _055_
*86 _056_
*87 _057_
*88 _058_
*89 _059_
*90 _060_
*91 _061_
*92 _062_
*93 _063_
*94 _064_
*95 _065_
*96 _066_
*97 _067_
*98 _068_
*99 _069_
*100 _070_
*101 _071_
*102 _072_
*103 _073_
*104 _074_
*105 _075_
*106 _076_
*107 _077_
*108 _078_
*109 _079_
*110 _080_
*111 _081_
*112 _082_
*113 _083_
*114 _084_
*115 _085_
*116 _086_
*117 _087_
*118 _088_
*119 _089_
*120 _090_
*121 _091_
*122 _092_
*123 _093_
*124 _094_
*125 _095_
*126 _096_
*127 _097_
*128 _098_
*129 _099_
*130 _100_
*131 _101_
*132 _102_
*133 _103_
*134 clknet_0_clk
*135 clknet_1_0__leaf_clk
*136 clknet_1_1__leaf_clk
*137 dut38\.count\[0\]
*138 dut38\.count\[1\]
*139 dut38\.count\[2\]
*140 dut38\.count\[3\]
*141 net1
*142 net10
*143 net11
*144 net12
*145 net13
*146 net14
*147 net15
*148 net16
*149 net17
*150 net18
*151 net19
*152 net2
*153 net20
*154 net21
*155 net22
*156 net23
*157 net24
*158 net3
*159 net4
*160 net5
*161 net6
*162 net7
*163 net8
*164 net9
*165 ANTENNA__208__CLK
*166 ANTENNA__209__CLK
*167 ANTENNA__210__CLK
*168 ANTENNA__211__CLK
*169 ANTENNA__212__CLK
*170 ANTENNA__213__CLK
*171 ANTENNA__214__CLK
*172 ANTENNA__215__CLK
*173 ANTENNA__216__CLK
*174 ANTENNA__217__CLK
*175 ANTENNA__218__CLK
*176 ANTENNA__219__CLK
*177 ANTENNA__220__CLK
*178 ANTENNA__221__CLK
*179 ANTENNA__222__CLK
*180 ANTENNA__223__CLK
*181 ANTENNA__224__CLK
*182 ANTENNA__225__CLK
*183 ANTENNA__226__CLK
*184 ANTENNA__227__CLK
*185 ANTENNA__228__CLK
*186 ANTENNA__229__CLK
*187 ANTENNA__230__CLK
*188 ANTENNA__231__CLK
*189 ANTENNA__232__CLK
*190 ANTENNA_clkbuf_0_clk_I
*191 FILLER_0_0_104
*192 FILLER_0_0_138
*193 FILLER_0_0_142
*194 FILLER_0_0_172
*195 FILLER_0_0_176
*196 FILLER_0_0_2
*197 FILLER_0_0_232
*198 FILLER_0_0_236
*199 FILLER_0_0_240
*200 FILLER_0_0_256
*201 FILLER_0_0_258
*202 FILLER_0_0_263
*203 FILLER_0_0_271
*204 FILLER_0_0_274
*205 FILLER_0_0_308
*206 FILLER_0_0_342
*207 FILLER_0_0_346
*208 FILLER_0_0_348
*209 FILLER_0_0_36
*210 FILLER_0_0_70
*211 FILLER_0_10_101
*212 FILLER_0_10_107
*213 FILLER_0_10_171
*214 FILLER_0_10_177
*215 FILLER_0_10_2
*216 FILLER_0_10_241
*217 FILLER_0_10_247
*218 FILLER_0_10_311
*219 FILLER_0_10_317
*220 FILLER_0_10_34
*221 FILLER_0_10_37
*222 FILLER_0_11_136
*223 FILLER_0_11_142
*224 FILLER_0_11_2
*225 FILLER_0_11_206
*226 FILLER_0_11_212
*227 FILLER_0_11_276
*228 FILLER_0_11_282
*229 FILLER_0_11_346
*230 FILLER_0_11_348
*231 FILLER_0_11_66
*232 FILLER_0_11_72
*233 FILLER_0_12_101
*234 FILLER_0_12_107
*235 FILLER_0_12_123
*236 FILLER_0_12_131
*237 FILLER_0_12_133
*238 FILLER_0_12_163
*239 FILLER_0_12_167
*240 FILLER_0_12_177
*241 FILLER_0_12_2
*242 FILLER_0_12_241
*243 FILLER_0_12_247
*244 FILLER_0_12_311
*245 FILLER_0_12_317
*246 FILLER_0_12_34
*247 FILLER_0_12_37
*248 FILLER_0_13_104
*249 FILLER_0_13_108
*250 FILLER_0_13_110
*251 FILLER_0_13_142
*252 FILLER_0_13_146
*253 FILLER_0_13_162
*254 FILLER_0_13_166
*255 FILLER_0_13_197
*256 FILLER_0_13_2
*257 FILLER_0_13_201
*258 FILLER_0_13_209
*259 FILLER_0_13_212
*260 FILLER_0_13_214
*261 FILLER_0_13_244
*262 FILLER_0_13_248
*263 FILLER_0_13_282
*264 FILLER_0_13_346
*265 FILLER_0_13_348
*266 FILLER_0_13_66
*267 FILLER_0_13_72
*268 FILLER_0_14_101
*269 FILLER_0_14_107
*270 FILLER_0_14_123
*271 FILLER_0_14_127
*272 FILLER_0_14_148
*273 FILLER_0_14_152
*274 FILLER_0_14_162
*275 FILLER_0_14_166
*276 FILLER_0_14_168
*277 FILLER_0_14_177
*278 FILLER_0_14_187
*279 FILLER_0_14_2
*280 FILLER_0_14_218
*281 FILLER_0_14_228
*282 FILLER_0_14_232
*283 FILLER_0_14_240
*284 FILLER_0_14_244
*285 FILLER_0_14_247
*286 FILLER_0_14_311
*287 FILLER_0_14_317
*288 FILLER_0_14_321
*289 FILLER_0_14_34
*290 FILLER_0_14_37
*291 FILLER_0_15_114
*292 FILLER_0_15_118
*293 FILLER_0_15_134
*294 FILLER_0_15_138
*295 FILLER_0_15_142
*296 FILLER_0_15_146
*297 FILLER_0_15_148
*298 FILLER_0_15_180
*299 FILLER_0_15_188
*300 FILLER_0_15_198
*301 FILLER_0_15_2
*302 FILLER_0_15_206
*303 FILLER_0_15_212
*304 FILLER_0_15_220
*305 FILLER_0_15_224
*306 FILLER_0_15_234
*307 FILLER_0_15_266
*308 FILLER_0_15_274
*309 FILLER_0_15_278
*310 FILLER_0_15_282
*311 FILLER_0_15_314
*312 FILLER_0_15_322
*313 FILLER_0_15_66
*314 FILLER_0_15_72
*315 FILLER_0_15_80
*316 FILLER_0_15_84
*317 FILLER_0_16_101
*318 FILLER_0_16_136
*319 FILLER_0_16_140
*320 FILLER_0_16_172
*321 FILLER_0_16_174
*322 FILLER_0_16_187
*323 FILLER_0_16_189
*324 FILLER_0_16_2
*325 FILLER_0_16_205
*326 FILLER_0_16_237
*327 FILLER_0_16_247
*328 FILLER_0_16_311
*329 FILLER_0_16_317
*330 FILLER_0_16_34
*331 FILLER_0_16_37
*332 FILLER_0_17_104
*333 FILLER_0_17_122
*334 FILLER_0_17_132
*335 FILLER_0_17_138
*336 FILLER_0_17_142
*337 FILLER_0_17_158
*338 FILLER_0_17_167
*339 FILLER_0_17_183
*340 FILLER_0_17_185
*341 FILLER_0_17_191
*342 FILLER_0_17_207
*343 FILLER_0_17_209
*344 FILLER_0_17_212
*345 FILLER_0_17_220
*346 FILLER_0_17_224
*347 FILLER_0_17_228
*348 FILLER_0_17_260
*349 FILLER_0_17_276
*350 FILLER_0_17_28
*351 FILLER_0_17_282
*352 FILLER_0_17_346
*353 FILLER_0_17_348
*354 FILLER_0_17_60
*355 FILLER_0_17_68
*356 FILLER_0_17_72
*357 FILLER_0_18_101
*358 FILLER_0_18_112
*359 FILLER_0_18_128
*360 FILLER_0_18_132
*361 FILLER_0_18_134
*362 FILLER_0_18_142
*363 FILLER_0_18_146
*364 FILLER_0_18_153
*365 FILLER_0_18_168
*366 FILLER_0_18_172
*367 FILLER_0_18_174
*368 FILLER_0_18_177
*369 FILLER_0_18_2
*370 FILLER_0_18_261
*371 FILLER_0_18_293
*372 FILLER_0_18_309
*373 FILLER_0_18_313
*374 FILLER_0_18_317
*375 FILLER_0_18_321
*376 FILLER_0_18_34
*377 FILLER_0_18_37
*378 FILLER_0_19_116
*379 FILLER_0_19_120
*380 FILLER_0_19_124
*381 FILLER_0_19_126
*382 FILLER_0_19_134
*383 FILLER_0_19_155
*384 FILLER_0_19_157
*385 FILLER_0_19_169
*386 FILLER_0_19_175
*387 FILLER_0_19_196
*388 FILLER_0_19_206
*389 FILLER_0_19_212
*390 FILLER_0_19_220
*391 FILLER_0_19_224
*392 FILLER_0_19_254
*393 FILLER_0_19_258
*394 FILLER_0_19_274
*395 FILLER_0_19_278
*396 FILLER_0_19_28
*397 FILLER_0_19_282
*398 FILLER_0_19_314
*399 FILLER_0_19_322
*400 FILLER_0_19_60
*401 FILLER_0_19_68
*402 FILLER_0_19_72
*403 FILLER_0_19_76
*404 FILLER_0_19_78
*405 FILLER_0_1_136
*406 FILLER_0_1_168
*407 FILLER_0_1_172
*408 FILLER_0_1_174
*409 FILLER_0_1_2
*410 FILLER_0_1_201
*411 FILLER_0_1_209
*412 FILLER_0_1_212
*413 FILLER_0_1_276
*414 FILLER_0_1_282
*415 FILLER_0_1_346
*416 FILLER_0_1_348
*417 FILLER_0_1_66
*418 FILLER_0_1_72
*419 FILLER_0_20_101
*420 FILLER_0_20_112
*421 FILLER_0_20_116
*422 FILLER_0_20_118
*423 FILLER_0_20_183
*424 FILLER_0_20_185
*425 FILLER_0_20_2
*426 FILLER_0_20_203
*427 FILLER_0_20_211
*428 FILLER_0_20_224
*429 FILLER_0_20_228
*430 FILLER_0_20_243
*431 FILLER_0_20_247
*432 FILLER_0_20_311
*433 FILLER_0_20_317
*434 FILLER_0_20_321
*435 FILLER_0_20_34
*436 FILLER_0_20_37
*437 FILLER_0_20_69
*438 FILLER_0_20_85
*439 FILLER_0_20_93
*440 FILLER_0_21_111
*441 FILLER_0_21_132
*442 FILLER_0_21_153
*443 FILLER_0_21_157
*444 FILLER_0_21_2
*445 FILLER_0_21_212
*446 FILLER_0_21_220
*447 FILLER_0_21_224
*448 FILLER_0_21_240
*449 FILLER_0_21_272
*450 FILLER_0_21_282
*451 FILLER_0_21_346
*452 FILLER_0_21_348
*453 FILLER_0_21_66
*454 FILLER_0_21_72
*455 FILLER_0_21_80
*456 FILLER_0_22_101
*457 FILLER_0_22_107
*458 FILLER_0_22_123
*459 FILLER_0_22_125
*460 FILLER_0_22_138
*461 FILLER_0_22_146
*462 FILLER_0_22_164
*463 FILLER_0_22_166
*464 FILLER_0_22_173
*465 FILLER_0_22_177
*466 FILLER_0_22_194
*467 FILLER_0_22_247
*468 FILLER_0_22_28
*469 FILLER_0_22_311
*470 FILLER_0_22_317
*471 FILLER_0_22_32
*472 FILLER_0_22_34
*473 FILLER_0_22_37
*474 FILLER_0_23_118
*475 FILLER_0_23_122
*476 FILLER_0_23_188
*477 FILLER_0_23_199
*478 FILLER_0_23_2
*479 FILLER_0_23_207
*480 FILLER_0_23_209
*481 FILLER_0_23_212
*482 FILLER_0_23_216
*483 FILLER_0_23_247
*484 FILLER_0_23_251
*485 FILLER_0_23_267
*486 FILLER_0_23_275
*487 FILLER_0_23_279
*488 FILLER_0_23_282
*489 FILLER_0_23_314
*490 FILLER_0_23_322
*491 FILLER_0_23_66
*492 FILLER_0_23_72
*493 FILLER_0_23_88
*494 FILLER_0_24_101
*495 FILLER_0_24_107
*496 FILLER_0_24_115
*497 FILLER_0_24_119
*498 FILLER_0_24_148
*499 FILLER_0_24_160
*500 FILLER_0_24_164
*501 FILLER_0_24_2
*502 FILLER_0_24_202
*503 FILLER_0_24_210
*504 FILLER_0_24_214
*505 FILLER_0_24_247
*506 FILLER_0_24_251
*507 FILLER_0_24_317
*508 FILLER_0_24_321
*509 FILLER_0_24_34
*510 FILLER_0_24_37
*511 FILLER_0_25_120
*512 FILLER_0_25_124
*513 FILLER_0_25_152
*514 FILLER_0_25_160
*515 FILLER_0_25_164
*516 FILLER_0_25_166
*517 FILLER_0_25_2
*518 FILLER_0_25_212
*519 FILLER_0_25_216
*520 FILLER_0_25_229
*521 FILLER_0_25_241
*522 FILLER_0_25_273
*523 FILLER_0_25_277
*524 FILLER_0_25_279
*525 FILLER_0_25_282
*526 FILLER_0_25_346
*527 FILLER_0_25_348
*528 FILLER_0_25_66
*529 FILLER_0_25_72
*530 FILLER_0_25_88
*531 FILLER_0_25_90
*532 FILLER_0_26_101
*533 FILLER_0_26_107
*534 FILLER_0_26_123
*535 FILLER_0_26_131
*536 FILLER_0_26_163
*537 FILLER_0_26_171
*538 FILLER_0_26_185
*539 FILLER_0_26_2
*540 FILLER_0_26_217
*541 FILLER_0_26_233
*542 FILLER_0_26_241
*543 FILLER_0_26_247
*544 FILLER_0_26_311
*545 FILLER_0_26_317
*546 FILLER_0_26_34
*547 FILLER_0_26_37
*548 FILLER_0_27_126
*549 FILLER_0_27_128
*550 FILLER_0_27_136
*551 FILLER_0_27_142
*552 FILLER_0_27_154
*553 FILLER_0_27_187
*554 FILLER_0_27_191
*555 FILLER_0_27_193
*556 FILLER_0_27_2
*557 FILLER_0_27_202
*558 FILLER_0_27_217
*559 FILLER_0_27_249
*560 FILLER_0_27_265
*561 FILLER_0_27_273
*562 FILLER_0_27_277
*563 FILLER_0_27_279
*564 FILLER_0_27_282
*565 FILLER_0_27_314
*566 FILLER_0_27_330
*567 FILLER_0_27_338
*568 FILLER_0_27_342
*569 FILLER_0_27_344
*570 FILLER_0_27_66
*571 FILLER_0_27_72
*572 FILLER_0_27_88
*573 FILLER_0_27_90
*574 FILLER_0_28_101
*575 FILLER_0_28_107
*576 FILLER_0_28_123
*577 FILLER_0_28_125
*578 FILLER_0_28_160
*579 FILLER_0_28_164
*580 FILLER_0_28_168
*581 FILLER_0_28_185
*582 FILLER_0_28_189
*583 FILLER_0_28_191
*584 FILLER_0_28_2
*585 FILLER_0_28_221
*586 FILLER_0_28_225
*587 FILLER_0_28_232
*588 FILLER_0_28_240
*589 FILLER_0_28_244
*590 FILLER_0_28_247
*591 FILLER_0_28_311
*592 FILLER_0_28_317
*593 FILLER_0_28_34
*594 FILLER_0_28_37
*595 FILLER_0_29_104
*596 FILLER_0_29_120
*597 FILLER_0_29_128
*598 FILLER_0_29_135
*599 FILLER_0_29_139
*600 FILLER_0_29_142
*601 FILLER_0_29_150
*602 FILLER_0_29_152
*603 FILLER_0_29_159
*604 FILLER_0_29_161
*605 FILLER_0_29_196
*606 FILLER_0_29_2
*607 FILLER_0_29_200
*608 FILLER_0_29_204
*609 FILLER_0_29_243
*610 FILLER_0_29_247
*611 FILLER_0_29_279
*612 FILLER_0_29_282
*613 FILLER_0_29_314
*614 FILLER_0_29_322
*615 FILLER_0_29_66
*616 FILLER_0_29_72
*617 FILLER_0_2_101
*618 FILLER_0_2_107
*619 FILLER_0_2_123
*620 FILLER_0_2_131
*621 FILLER_0_2_159
*622 FILLER_0_2_177
*623 FILLER_0_2_2
*624 FILLER_0_2_241
*625 FILLER_0_2_247
*626 FILLER_0_2_311
*627 FILLER_0_2_317
*628 FILLER_0_2_34
*629 FILLER_0_2_37
*630 FILLER_0_30_101
*631 FILLER_0_30_107
*632 FILLER_0_30_111
*633 FILLER_0_30_113
*634 FILLER_0_30_148
*635 FILLER_0_30_152
*636 FILLER_0_30_168
*637 FILLER_0_30_172
*638 FILLER_0_30_174
*639 FILLER_0_30_185
*640 FILLER_0_30_2
*641 FILLER_0_30_201
*642 FILLER_0_30_209
*643 FILLER_0_30_216
*644 FILLER_0_30_224
*645 FILLER_0_30_232
*646 FILLER_0_30_240
*647 FILLER_0_30_244
*648 FILLER_0_30_247
*649 FILLER_0_30_311
*650 FILLER_0_30_317
*651 FILLER_0_30_321
*652 FILLER_0_30_34
*653 FILLER_0_30_37
*654 FILLER_0_31_136
*655 FILLER_0_31_142
*656 FILLER_0_31_2
*657 FILLER_0_31_206
*658 FILLER_0_31_212
*659 FILLER_0_31_276
*660 FILLER_0_31_282
*661 FILLER_0_31_314
*662 FILLER_0_31_322
*663 FILLER_0_31_66
*664 FILLER_0_31_72
*665 FILLER_0_32_101
*666 FILLER_0_32_107
*667 FILLER_0_32_171
*668 FILLER_0_32_177
*669 FILLER_0_32_2
*670 FILLER_0_32_241
*671 FILLER_0_32_247
*672 FILLER_0_32_311
*673 FILLER_0_32_317
*674 FILLER_0_32_34
*675 FILLER_0_32_37
*676 FILLER_0_33_136
*677 FILLER_0_33_142
*678 FILLER_0_33_2
*679 FILLER_0_33_206
*680 FILLER_0_33_212
*681 FILLER_0_33_276
*682 FILLER_0_33_282
*683 FILLER_0_33_346
*684 FILLER_0_33_348
*685 FILLER_0_33_66
*686 FILLER_0_33_72
*687 FILLER_0_34_101
*688 FILLER_0_34_107
*689 FILLER_0_34_171
*690 FILLER_0_34_177
*691 FILLER_0_34_2
*692 FILLER_0_34_241
*693 FILLER_0_34_247
*694 FILLER_0_34_311
*695 FILLER_0_34_317
*696 FILLER_0_34_34
*697 FILLER_0_34_37
*698 FILLER_0_35_136
*699 FILLER_0_35_142
*700 FILLER_0_35_2
*701 FILLER_0_35_206
*702 FILLER_0_35_212
*703 FILLER_0_35_276
*704 FILLER_0_35_282
*705 FILLER_0_35_346
*706 FILLER_0_35_348
*707 FILLER_0_35_66
*708 FILLER_0_35_72
*709 FILLER_0_36_101
*710 FILLER_0_36_107
*711 FILLER_0_36_171
*712 FILLER_0_36_177
*713 FILLER_0_36_2
*714 FILLER_0_36_241
*715 FILLER_0_36_247
*716 FILLER_0_36_311
*717 FILLER_0_36_317
*718 FILLER_0_36_34
*719 FILLER_0_36_37
*720 FILLER_0_37_136
*721 FILLER_0_37_142
*722 FILLER_0_37_2
*723 FILLER_0_37_206
*724 FILLER_0_37_212
*725 FILLER_0_37_276
*726 FILLER_0_37_282
*727 FILLER_0_37_346
*728 FILLER_0_37_348
*729 FILLER_0_37_66
*730 FILLER_0_37_72
*731 FILLER_0_38_101
*732 FILLER_0_38_107
*733 FILLER_0_38_171
*734 FILLER_0_38_177
*735 FILLER_0_38_2
*736 FILLER_0_38_241
*737 FILLER_0_38_247
*738 FILLER_0_38_311
*739 FILLER_0_38_317
*740 FILLER_0_38_34
*741 FILLER_0_38_37
*742 FILLER_0_39_136
*743 FILLER_0_39_142
*744 FILLER_0_39_2
*745 FILLER_0_39_206
*746 FILLER_0_39_212
*747 FILLER_0_39_276
*748 FILLER_0_39_282
*749 FILLER_0_39_346
*750 FILLER_0_39_348
*751 FILLER_0_39_66
*752 FILLER_0_39_72
*753 FILLER_0_3_136
*754 FILLER_0_3_142
*755 FILLER_0_3_2
*756 FILLER_0_3_206
*757 FILLER_0_3_212
*758 FILLER_0_3_276
*759 FILLER_0_3_282
*760 FILLER_0_3_346
*761 FILLER_0_3_348
*762 FILLER_0_3_66
*763 FILLER_0_3_72
*764 FILLER_0_40_101
*765 FILLER_0_40_107
*766 FILLER_0_40_171
*767 FILLER_0_40_177
*768 FILLER_0_40_2
*769 FILLER_0_40_241
*770 FILLER_0_40_247
*771 FILLER_0_40_311
*772 FILLER_0_40_317
*773 FILLER_0_40_34
*774 FILLER_0_40_37
*775 FILLER_0_41_136
*776 FILLER_0_41_142
*777 FILLER_0_41_2
*778 FILLER_0_41_206
*779 FILLER_0_41_212
*780 FILLER_0_41_276
*781 FILLER_0_41_282
*782 FILLER_0_41_346
*783 FILLER_0_41_348
*784 FILLER_0_41_66
*785 FILLER_0_41_72
*786 FILLER_0_42_101
*787 FILLER_0_42_107
*788 FILLER_0_42_171
*789 FILLER_0_42_177
*790 FILLER_0_42_2
*791 FILLER_0_42_241
*792 FILLER_0_42_247
*793 FILLER_0_42_311
*794 FILLER_0_42_317
*795 FILLER_0_42_34
*796 FILLER_0_42_37
*797 FILLER_0_43_136
*798 FILLER_0_43_168
*799 FILLER_0_43_176
*800 FILLER_0_43_180
*801 FILLER_0_43_2
*802 FILLER_0_43_207
*803 FILLER_0_43_209
*804 FILLER_0_43_212
*805 FILLER_0_43_276
*806 FILLER_0_43_282
*807 FILLER_0_43_346
*808 FILLER_0_43_348
*809 FILLER_0_43_66
*810 FILLER_0_43_72
*811 FILLER_0_44_104
*812 FILLER_0_44_138
*813 FILLER_0_44_142
*814 FILLER_0_44_172
*815 FILLER_0_44_176
*816 FILLER_0_44_2
*817 FILLER_0_44_206
*818 FILLER_0_44_210
*819 FILLER_0_44_240
*820 FILLER_0_44_274
*821 FILLER_0_44_308
*822 FILLER_0_44_342
*823 FILLER_0_44_346
*824 FILLER_0_44_348
*825 FILLER_0_44_36
*826 FILLER_0_44_70
*827 FILLER_0_4_101
*828 FILLER_0_4_107
*829 FILLER_0_4_171
*830 FILLER_0_4_177
*831 FILLER_0_4_2
*832 FILLER_0_4_241
*833 FILLER_0_4_247
*834 FILLER_0_4_311
*835 FILLER_0_4_317
*836 FILLER_0_4_34
*837 FILLER_0_4_37
*838 FILLER_0_5_136
*839 FILLER_0_5_142
*840 FILLER_0_5_2
*841 FILLER_0_5_206
*842 FILLER_0_5_212
*843 FILLER_0_5_276
*844 FILLER_0_5_282
*845 FILLER_0_5_346
*846 FILLER_0_5_348
*847 FILLER_0_5_66
*848 FILLER_0_5_72
*849 FILLER_0_6_101
*850 FILLER_0_6_107
*851 FILLER_0_6_171
*852 FILLER_0_6_177
*853 FILLER_0_6_2
*854 FILLER_0_6_241
*855 FILLER_0_6_247
*856 FILLER_0_6_311
*857 FILLER_0_6_317
*858 FILLER_0_6_34
*859 FILLER_0_6_37
*860 FILLER_0_7_136
*861 FILLER_0_7_142
*862 FILLER_0_7_2
*863 FILLER_0_7_206
*864 FILLER_0_7_212
*865 FILLER_0_7_276
*866 FILLER_0_7_282
*867 FILLER_0_7_346
*868 FILLER_0_7_348
*869 FILLER_0_7_66
*870 FILLER_0_7_72
*871 FILLER_0_8_101
*872 FILLER_0_8_107
*873 FILLER_0_8_171
*874 FILLER_0_8_177
*875 FILLER_0_8_2
*876 FILLER_0_8_241
*877 FILLER_0_8_247
*878 FILLER_0_8_311
*879 FILLER_0_8_317
*880 FILLER_0_8_34
*881 FILLER_0_8_37
*882 FILLER_0_9_136
*883 FILLER_0_9_142
*884 FILLER_0_9_2
*885 FILLER_0_9_206
*886 FILLER_0_9_212
*887 FILLER_0_9_276
*888 FILLER_0_9_282
*889 FILLER_0_9_346
*890 FILLER_0_9_348
*891 FILLER_0_9_66
*892 FILLER_0_9_72
*893 PHY_EDGE_ROW_0_Left_45
*894 PHY_EDGE_ROW_0_Right_0
*895 PHY_EDGE_ROW_10_Left_55
*896 PHY_EDGE_ROW_10_Right_10
*897 PHY_EDGE_ROW_11_Left_56
*898 PHY_EDGE_ROW_11_Right_11
*899 PHY_EDGE_ROW_12_Left_57
*900 PHY_EDGE_ROW_12_Right_12
*901 PHY_EDGE_ROW_13_Left_58
*902 PHY_EDGE_ROW_13_Right_13
*903 PHY_EDGE_ROW_14_Left_59
*904 PHY_EDGE_ROW_14_Right_14
*905 PHY_EDGE_ROW_15_Left_60
*906 PHY_EDGE_ROW_15_Right_15
*907 PHY_EDGE_ROW_16_Left_61
*908 PHY_EDGE_ROW_16_Right_16
*909 PHY_EDGE_ROW_17_Left_62
*910 PHY_EDGE_ROW_17_Right_17
*911 PHY_EDGE_ROW_18_Left_63
*912 PHY_EDGE_ROW_18_Right_18
*913 PHY_EDGE_ROW_19_Left_64
*914 PHY_EDGE_ROW_19_Right_19
*915 PHY_EDGE_ROW_1_Left_46
*916 PHY_EDGE_ROW_1_Right_1
*917 PHY_EDGE_ROW_20_Left_65
*918 PHY_EDGE_ROW_20_Right_20
*919 PHY_EDGE_ROW_21_Left_66
*920 PHY_EDGE_ROW_21_Right_21
*921 PHY_EDGE_ROW_22_Left_67
*922 PHY_EDGE_ROW_22_Right_22
*923 PHY_EDGE_ROW_23_Left_68
*924 PHY_EDGE_ROW_23_Right_23
*925 PHY_EDGE_ROW_24_Left_69
*926 PHY_EDGE_ROW_24_Right_24
*927 PHY_EDGE_ROW_25_Left_70
*928 PHY_EDGE_ROW_25_Right_25
*929 PHY_EDGE_ROW_26_Left_71
*930 PHY_EDGE_ROW_26_Right_26
*931 PHY_EDGE_ROW_27_Left_72
*932 PHY_EDGE_ROW_27_Right_27
*933 PHY_EDGE_ROW_28_Left_73
*934 PHY_EDGE_ROW_28_Right_28
*935 PHY_EDGE_ROW_29_Left_74
*936 PHY_EDGE_ROW_29_Right_29
*937 PHY_EDGE_ROW_2_Left_47
*938 PHY_EDGE_ROW_2_Right_2
*939 PHY_EDGE_ROW_30_Left_75
*940 PHY_EDGE_ROW_30_Right_30
*941 PHY_EDGE_ROW_31_Left_76
*942 PHY_EDGE_ROW_31_Right_31
*943 PHY_EDGE_ROW_32_Left_77
*944 PHY_EDGE_ROW_32_Right_32
*945 PHY_EDGE_ROW_33_Left_78
*946 PHY_EDGE_ROW_33_Right_33
*947 PHY_EDGE_ROW_34_Left_79
*948 PHY_EDGE_ROW_34_Right_34
*949 PHY_EDGE_ROW_35_Left_80
*950 PHY_EDGE_ROW_35_Right_35
*951 PHY_EDGE_ROW_36_Left_81
*952 PHY_EDGE_ROW_36_Right_36
*953 PHY_EDGE_ROW_37_Left_82
*954 PHY_EDGE_ROW_37_Right_37
*955 PHY_EDGE_ROW_38_Left_83
*956 PHY_EDGE_ROW_38_Right_38
*957 PHY_EDGE_ROW_39_Left_84
*958 PHY_EDGE_ROW_39_Right_39
*959 PHY_EDGE_ROW_3_Left_48
*960 PHY_EDGE_ROW_3_Right_3
*961 PHY_EDGE_ROW_40_Left_85
*962 PHY_EDGE_ROW_40_Right_40
*963 PHY_EDGE_ROW_41_Left_86
*964 PHY_EDGE_ROW_41_Right_41
*965 PHY_EDGE_ROW_42_Left_87
*966 PHY_EDGE_ROW_42_Right_42
*967 PHY_EDGE_ROW_43_Left_88
*968 PHY_EDGE_ROW_43_Right_43
*969 PHY_EDGE_ROW_44_Left_89
*970 PHY_EDGE_ROW_44_Right_44
*971 PHY_EDGE_ROW_4_Left_49
*972 PHY_EDGE_ROW_4_Right_4
*973 PHY_EDGE_ROW_5_Left_50
*974 PHY_EDGE_ROW_5_Right_5
*975 PHY_EDGE_ROW_6_Left_51
*976 PHY_EDGE_ROW_6_Right_6
*977 PHY_EDGE_ROW_7_Left_52
*978 PHY_EDGE_ROW_7_Right_7
*979 PHY_EDGE_ROW_8_Left_53
*980 PHY_EDGE_ROW_8_Right_8
*981 PHY_EDGE_ROW_9_Left_54
*982 PHY_EDGE_ROW_9_Right_9
*983 TAP_TAPCELL_ROW_0_90
*984 TAP_TAPCELL_ROW_0_91
*985 TAP_TAPCELL_ROW_0_92
*986 TAP_TAPCELL_ROW_0_93
*987 TAP_TAPCELL_ROW_0_94
*988 TAP_TAPCELL_ROW_0_95
*989 TAP_TAPCELL_ROW_0_96
*990 TAP_TAPCELL_ROW_0_97
*991 TAP_TAPCELL_ROW_0_98
*992 TAP_TAPCELL_ROW_0_99
*993 TAP_TAPCELL_ROW_10_140
*994 TAP_TAPCELL_ROW_10_141
*995 TAP_TAPCELL_ROW_10_142
*996 TAP_TAPCELL_ROW_10_143
*997 TAP_TAPCELL_ROW_10_144
*998 TAP_TAPCELL_ROW_11_145
*999 TAP_TAPCELL_ROW_11_146
*1000 TAP_TAPCELL_ROW_11_147
*1001 TAP_TAPCELL_ROW_11_148
*1002 TAP_TAPCELL_ROW_12_149
*1003 TAP_TAPCELL_ROW_12_150
*1004 TAP_TAPCELL_ROW_12_151
*1005 TAP_TAPCELL_ROW_12_152
*1006 TAP_TAPCELL_ROW_12_153
*1007 TAP_TAPCELL_ROW_13_154
*1008 TAP_TAPCELL_ROW_13_155
*1009 TAP_TAPCELL_ROW_13_156
*1010 TAP_TAPCELL_ROW_13_157
*1011 TAP_TAPCELL_ROW_14_158
*1012 TAP_TAPCELL_ROW_14_159
*1013 TAP_TAPCELL_ROW_14_160
*1014 TAP_TAPCELL_ROW_14_161
*1015 TAP_TAPCELL_ROW_14_162
*1016 TAP_TAPCELL_ROW_15_163
*1017 TAP_TAPCELL_ROW_15_164
*1018 TAP_TAPCELL_ROW_15_165
*1019 TAP_TAPCELL_ROW_15_166
*1020 TAP_TAPCELL_ROW_16_167
*1021 TAP_TAPCELL_ROW_16_168
*1022 TAP_TAPCELL_ROW_16_169
*1023 TAP_TAPCELL_ROW_16_170
*1024 TAP_TAPCELL_ROW_16_171
*1025 TAP_TAPCELL_ROW_17_172
*1026 TAP_TAPCELL_ROW_17_173
*1027 TAP_TAPCELL_ROW_17_174
*1028 TAP_TAPCELL_ROW_17_175
*1029 TAP_TAPCELL_ROW_18_176
*1030 TAP_TAPCELL_ROW_18_177
*1031 TAP_TAPCELL_ROW_18_178
*1032 TAP_TAPCELL_ROW_18_179
*1033 TAP_TAPCELL_ROW_18_180
*1034 TAP_TAPCELL_ROW_19_181
*1035 TAP_TAPCELL_ROW_19_182
*1036 TAP_TAPCELL_ROW_19_183
*1037 TAP_TAPCELL_ROW_19_184
*1038 TAP_TAPCELL_ROW_1_100
*1039 TAP_TAPCELL_ROW_1_101
*1040 TAP_TAPCELL_ROW_1_102
*1041 TAP_TAPCELL_ROW_1_103
*1042 TAP_TAPCELL_ROW_20_185
*1043 TAP_TAPCELL_ROW_20_186
*1044 TAP_TAPCELL_ROW_20_187
*1045 TAP_TAPCELL_ROW_20_188
*1046 TAP_TAPCELL_ROW_20_189
*1047 TAP_TAPCELL_ROW_21_190
*1048 TAP_TAPCELL_ROW_21_191
*1049 TAP_TAPCELL_ROW_21_192
*1050 TAP_TAPCELL_ROW_21_193
*1051 TAP_TAPCELL_ROW_22_194
*1052 TAP_TAPCELL_ROW_22_195
*1053 TAP_TAPCELL_ROW_22_196
*1054 TAP_TAPCELL_ROW_22_197
*1055 TAP_TAPCELL_ROW_22_198
*1056 TAP_TAPCELL_ROW_23_199
*1057 TAP_TAPCELL_ROW_23_200
*1058 TAP_TAPCELL_ROW_23_201
*1059 TAP_TAPCELL_ROW_23_202
*1060 TAP_TAPCELL_ROW_24_203
*1061 TAP_TAPCELL_ROW_24_204
*1062 TAP_TAPCELL_ROW_24_205
*1063 TAP_TAPCELL_ROW_24_206
*1064 TAP_TAPCELL_ROW_24_207
*1065 TAP_TAPCELL_ROW_25_208
*1066 TAP_TAPCELL_ROW_25_209
*1067 TAP_TAPCELL_ROW_25_210
*1068 TAP_TAPCELL_ROW_25_211
*1069 TAP_TAPCELL_ROW_26_212
*1070 TAP_TAPCELL_ROW_26_213
*1071 TAP_TAPCELL_ROW_26_214
*1072 TAP_TAPCELL_ROW_26_215
*1073 TAP_TAPCELL_ROW_26_216
*1074 TAP_TAPCELL_ROW_27_217
*1075 TAP_TAPCELL_ROW_27_218
*1076 TAP_TAPCELL_ROW_27_219
*1077 TAP_TAPCELL_ROW_27_220
*1078 TAP_TAPCELL_ROW_28_221
*1079 TAP_TAPCELL_ROW_28_222
*1080 TAP_TAPCELL_ROW_28_223
*1081 TAP_TAPCELL_ROW_28_224
*1082 TAP_TAPCELL_ROW_28_225
*1083 TAP_TAPCELL_ROW_29_226
*1084 TAP_TAPCELL_ROW_29_227
*1085 TAP_TAPCELL_ROW_29_228
*1086 TAP_TAPCELL_ROW_29_229
*1087 TAP_TAPCELL_ROW_2_104
*1088 TAP_TAPCELL_ROW_2_105
*1089 TAP_TAPCELL_ROW_2_106
*1090 TAP_TAPCELL_ROW_2_107
*1091 TAP_TAPCELL_ROW_2_108
*1092 TAP_TAPCELL_ROW_30_230
*1093 TAP_TAPCELL_ROW_30_231
*1094 TAP_TAPCELL_ROW_30_232
*1095 TAP_TAPCELL_ROW_30_233
*1096 TAP_TAPCELL_ROW_30_234
*1097 TAP_TAPCELL_ROW_31_235
*1098 TAP_TAPCELL_ROW_31_236
*1099 TAP_TAPCELL_ROW_31_237
*1100 TAP_TAPCELL_ROW_31_238
*1101 TAP_TAPCELL_ROW_32_239
*1102 TAP_TAPCELL_ROW_32_240
*1103 TAP_TAPCELL_ROW_32_241
*1104 TAP_TAPCELL_ROW_32_242
*1105 TAP_TAPCELL_ROW_32_243
*1106 TAP_TAPCELL_ROW_33_244
*1107 TAP_TAPCELL_ROW_33_245
*1108 TAP_TAPCELL_ROW_33_246
*1109 TAP_TAPCELL_ROW_33_247
*1110 TAP_TAPCELL_ROW_34_248
*1111 TAP_TAPCELL_ROW_34_249
*1112 TAP_TAPCELL_ROW_34_250
*1113 TAP_TAPCELL_ROW_34_251
*1114 TAP_TAPCELL_ROW_34_252
*1115 TAP_TAPCELL_ROW_35_253
*1116 TAP_TAPCELL_ROW_35_254
*1117 TAP_TAPCELL_ROW_35_255
*1118 TAP_TAPCELL_ROW_35_256
*1119 TAP_TAPCELL_ROW_36_257
*1120 TAP_TAPCELL_ROW_36_258
*1121 TAP_TAPCELL_ROW_36_259
*1122 TAP_TAPCELL_ROW_36_260
*1123 TAP_TAPCELL_ROW_36_261
*1124 TAP_TAPCELL_ROW_37_262
*1125 TAP_TAPCELL_ROW_37_263
*1126 TAP_TAPCELL_ROW_37_264
*1127 TAP_TAPCELL_ROW_37_265
*1128 TAP_TAPCELL_ROW_38_266
*1129 TAP_TAPCELL_ROW_38_267
*1130 TAP_TAPCELL_ROW_38_268
*1131 TAP_TAPCELL_ROW_38_269
*1132 TAP_TAPCELL_ROW_38_270
*1133 TAP_TAPCELL_ROW_39_271
*1134 TAP_TAPCELL_ROW_39_272
*1135 TAP_TAPCELL_ROW_39_273
*1136 TAP_TAPCELL_ROW_39_274
*1137 TAP_TAPCELL_ROW_3_109
*1138 TAP_TAPCELL_ROW_3_110
*1139 TAP_TAPCELL_ROW_3_111
*1140 TAP_TAPCELL_ROW_3_112
*1141 TAP_TAPCELL_ROW_40_275
*1142 TAP_TAPCELL_ROW_40_276
*1143 TAP_TAPCELL_ROW_40_277
*1144 TAP_TAPCELL_ROW_40_278
*1145 TAP_TAPCELL_ROW_40_279
*1146 TAP_TAPCELL_ROW_41_280
*1147 TAP_TAPCELL_ROW_41_281
*1148 TAP_TAPCELL_ROW_41_282
*1149 TAP_TAPCELL_ROW_41_283
*1150 TAP_TAPCELL_ROW_42_284
*1151 TAP_TAPCELL_ROW_42_285
*1152 TAP_TAPCELL_ROW_42_286
*1153 TAP_TAPCELL_ROW_42_287
*1154 TAP_TAPCELL_ROW_42_288
*1155 TAP_TAPCELL_ROW_43_289
*1156 TAP_TAPCELL_ROW_43_290
*1157 TAP_TAPCELL_ROW_43_291
*1158 TAP_TAPCELL_ROW_43_292
*1159 TAP_TAPCELL_ROW_44_293
*1160 TAP_TAPCELL_ROW_44_294
*1161 TAP_TAPCELL_ROW_44_295
*1162 TAP_TAPCELL_ROW_44_296
*1163 TAP_TAPCELL_ROW_44_297
*1164 TAP_TAPCELL_ROW_44_298
*1165 TAP_TAPCELL_ROW_44_299
*1166 TAP_TAPCELL_ROW_44_300
*1167 TAP_TAPCELL_ROW_44_301
*1168 TAP_TAPCELL_ROW_44_302
*1169 TAP_TAPCELL_ROW_4_113
*1170 TAP_TAPCELL_ROW_4_114
*1171 TAP_TAPCELL_ROW_4_115
*1172 TAP_TAPCELL_ROW_4_116
*1173 TAP_TAPCELL_ROW_4_117
*1174 TAP_TAPCELL_ROW_5_118
*1175 TAP_TAPCELL_ROW_5_119
*1176 TAP_TAPCELL_ROW_5_120
*1177 TAP_TAPCELL_ROW_5_121
*1178 TAP_TAPCELL_ROW_6_122
*1179 TAP_TAPCELL_ROW_6_123
*1180 TAP_TAPCELL_ROW_6_124
*1181 TAP_TAPCELL_ROW_6_125
*1182 TAP_TAPCELL_ROW_6_126
*1183 TAP_TAPCELL_ROW_7_127
*1184 TAP_TAPCELL_ROW_7_128
*1185 TAP_TAPCELL_ROW_7_129
*1186 TAP_TAPCELL_ROW_7_130
*1187 TAP_TAPCELL_ROW_8_131
*1188 TAP_TAPCELL_ROW_8_132
*1189 TAP_TAPCELL_ROW_8_133
*1190 TAP_TAPCELL_ROW_8_134
*1191 TAP_TAPCELL_ROW_8_135
*1192 TAP_TAPCELL_ROW_9_136
*1193 TAP_TAPCELL_ROW_9_137
*1194 TAP_TAPCELL_ROW_9_138
*1195 TAP_TAPCELL_ROW_9_139
*1196 _104_
*1197 _105_
*1198 _106_
*1199 _107_
*1200 _108_
*1201 _109_
*1202 _110_
*1203 _111_
*1204 _112_
*1205 _113_
*1206 _114_
*1207 _115_
*1208 _116_
*1209 _117_
*1210 _118_
*1211 _119_
*1212 _120_
*1213 _121_
*1214 _122_
*1215 _123_
*1216 _124_
*1217 _125_
*1218 _126_
*1219 _127_
*1220 _128_
*1221 _129_
*1222 _130_
*1223 _131_
*1224 _132_
*1225 _133_
*1226 _134_
*1227 _135_
*1228 _136_
*1229 _137_
*1230 _138_
*1231 _139_
*1232 _140_
*1233 _141_
*1234 _142_
*1235 _143_
*1236 _144_
*1237 _145_
*1238 _146_
*1239 _147_
*1240 _148_
*1241 _149_
*1242 _150_
*1243 _151_
*1244 _152_
*1245 _153_
*1246 _154_
*1247 _155_
*1248 _156_
*1249 _157_
*1250 _158_
*1251 _159_
*1252 _160_
*1253 _161_
*1254 _162_
*1255 _163_
*1256 _164_
*1257 _165_
*1258 _166_
*1259 _167_
*1260 _168_
*1261 _169_
*1262 _170_
*1263 _171_
*1264 _172_
*1265 _173_
*1266 _174_
*1267 _175_
*1268 _176_
*1269 _177_
*1270 _178_
*1271 _179_
*1272 _180_
*1273 _181_
*1274 _182_
*1275 _183_
*1276 _184_
*1277 _185_
*1278 _186_
*1279 _187_
*1280 _188_
*1281 _189_
*1282 _190_
*1283 _191_
*1284 _192_
*1285 _193_
*1286 _194_
*1287 _195_
*1288 _196_
*1289 _197_
*1290 _198_
*1291 _199_
*1292 _200_
*1293 _201_
*1294 _202_
*1295 _203_
*1296 _204_
*1297 _205_
*1298 _206_
*1299 _207_
*1300 _208_
*1301 _209_
*1302 _210_
*1303 _211_
*1304 _212_
*1305 _213_
*1306 _214_
*1307 _215_
*1308 _216_
*1309 _217_
*1310 _218_
*1311 _219_
*1312 _220_
*1313 _221_
*1314 _222_
*1315 _223_
*1316 _224_
*1317 _225_
*1318 _226_
*1319 _227_
*1320 _228_
*1321 _229_
*1322 _230_
*1323 _231_
*1324 _232_
*1325 _235_
*1326 _236_
*1327 _237_
*1328 clkbuf_0_clk
*1329 clkbuf_1_0__f_clk
*1330 clkbuf_1_1__f_clk
*1331 ita38_25
*1332 ita38_26
*1333 output1
*1334 output10
*1335 output11
*1336 output12
*1337 output13
*1338 output14
*1339 output15
*1340 output16
*1341 output17
*1342 output18
*1343 output19
*1344 output2
*1345 output20
*1346 output21
*1347 output22
*1348 output23
*1349 output24
*1350 output3
*1351 output4
*1352 output5
*1353 output6
*1354 output7
*1355 output8
*1356 output9

*PORTS
clk I
segm[0] O
segm[10] O
segm[11] O
segm[12] O
segm[13] O
segm[1] O
segm[2] O
segm[3] O
segm[4] O
segm[5] O
segm[6] O
segm[7] O
segm[8] O
segm[9] O
sel[0] O
sel[10] O
sel[11] O
sel[1] O
sel[2] O
sel[3] O
sel[4] O
sel[5] O
sel[6] O
sel[7] O
sel[8] O
sel[9] O

*D_NET *1 0.0127687
*CONN
*P clk I
*I *1328:I I *D gf180mcu_fd_sc_mcu7t5v0__clkbuf_16
*I *190:I I *D gf180mcu_fd_sc_mcu7t5v0__antenna
*CAP
1 clk 0.00466209
2 *1328:I 0.000104302
3 *190:I 0
4 *1:15 0.00476639
5 *1328:I *112:16 1.1384e-05
6 *1328:I *117:10 3.73535e-05
7 *1:15 *1238:I 0.000293723
8 *1:15 *1260:A2 0.000181432
9 *1:15 *1282:B1 0.000365724
10 *1:15 *1282:B2 0.00127887
11 *1:15 *1356:I 0
12 *1:15 *94:28 6.78837e-05
13 *1:15 *108:27 0.000396912
14 *1:15 *119:25 0.000151383
15 *1:15 *135:158 0.000451288
*RES
1 clk *1:15 48.194 
2 *1:15 *190:I 4.5 
3 *1:15 *1328:I 5.26 
*END

*D_NET *2 0.00117696
*CONN
*P segm[0] O
*I *1331:ZN O *D gf180mcu_fd_sc_mcu7t5v0__tiel
*CAP
1 segm[0] 0.000588479
2 *1331:ZN 0.000588479
*RES
1 *1331:ZN segm[0] 8.414 
*END

*D_NET *3 0.00193926
*CONN
*P segm[10] O
*I *1333:Z O *D gf180mcu_fd_sc_mcu7t5v0__buf_8
*CAP
1 segm[10] 0.000969632
2 *1333:Z 0.000969632
*RES
1 *1333:Z segm[10] 19.846 
*END

*D_NET *4 0.000484858
*CONN
*P segm[11] O
*I *1344:Z O *D gf180mcu_fd_sc_mcu7t5v0__buf_8
*CAP
1 segm[11] 0.000176743
2 *1344:Z 0.000176743
3 segm[11] segm[8] 6.44669e-05
4 segm[11] segm[9] 6.69047e-05
*RES
1 *1344:Z segm[11] 10.71 
*END

*D_NET *5 0.000574926
*CONN
*P segm[12] O
*I *1350:Z O *D gf180mcu_fd_sc_mcu7t5v0__buf_8
*CAP
1 segm[12] 0.00025523
2 *1350:Z 0.00025523
3 segm[12] segm[7] 6.44669e-05
*RES
1 *1350:Z segm[12] 10.938 
*END

*D_NET *6 0.000751989
*CONN
*P segm[13] O
*I *1351:Z O *D gf180mcu_fd_sc_mcu7t5v0__buf_8
*CAP
1 segm[13] 0.000375995
2 *1351:Z 0.000375995
*RES
1 *1351:Z segm[13] 11.394 
*END

*D_NET *7 0.000772714
*CONN
*P segm[1] O
*I *1352:Z O *D gf180mcu_fd_sc_mcu7t5v0__buf_8
*CAP
1 segm[1] 0.000357661
2 *1352:Z 0.000357661
3 segm[1] segm[4] 5.73926e-05
*RES
1 *1352:Z segm[1] 11.394 
*END

*D_NET *8 0.000732784
*CONN
*P segm[2] O
*I *1332:ZN O *D gf180mcu_fd_sc_mcu7t5v0__tiel
*CAP