*SPEF "ieee 1481-1999"
*DESIGN "ita32"
*DATE "11:11:11 Fri 11 11, 1111"
*VENDOR "OpenRCX"
*PROGRAM "Parallel Extraction"
*VERSION "1.0"
*DESIGN_FLOW "NAME_SCOPE LOCAL" "PIN_CAP NONE"
*DIVIDER /
*DELIMITER :
*BUS_DELIMITER []
*T_UNIT 1 NS
*C_UNIT 1 PF
*R_UNIT 1 OHM
*L_UNIT 1 HENRY

*NAME_MAP
*1 clk
*2 segm[0]
*3 segm[10]
*4 segm[11]
*5 segm[12]
*6 segm[13]
*7 segm[1]
*8 segm[2]
*9 segm[3]
*10 segm[4]
*11 segm[5]
*12 segm[6]
*13 segm[7]
*14 segm[8]
*15 segm[9]
*16 sel[0]
*17 sel[10]
*18 sel[11]
*19 sel[1]
*20 sel[2]
*21 sel[3]
*22 sel[4]
*23 sel[5]
*24 sel[6]
*25 sel[7]
*26 sel[8]
*27 sel[9]
*30 _000_
*31 _001_
*32 _002_
*33 _003_
*34 _004_
*35 _005_
*36 _006_
*37 _007_
*38 _008_
*39 _009_
*40 _010_
*41 _011_
*42 _012_
*43 _013_
*44 _014_
*45 _015_
*46 _016_
*47 _017_
*48 _018_
*49 _019_
*50 _020_
*51 _021_
*52 _022_
*53 _023_
*54 _024_
*55 _025_
*56 _026_
*57 _027_
*58 _028_
*59 _029_
*60 _030_
*61 _031_
*62 _032_
*63 _033_
*64 _034_
*65 _035_
*66 _036_
*67 _037_
*68 _038_
*69 _039_
*70 _040_
*71 _041_
*72 _042_
*73 _043_
*74 _044_
*75 _045_
*76 _046_
*77 _047_
*78 _048_
*79 _049_
*80 _050_
*81 _051_
*82 _052_
*83 _053_
*84 _054_
*85 _055_
*86 _056_
*87 _057_
*88 _058_
*89 _059_
*90 _060_
*91 _061_
*92 _062_
*93 _063_
*94 _064_
*95 _065_
*96 _066_
*97 _067_
*98 _068_
*99 _069_
*100 _070_
*101 _071_
*102 _072_
*103 _073_
*104 _074_
*105 _075_
*106 _076_
*107 _077_
*108 _078_
*109 _079_
*110 _080_
*111 _081_
*112 _082_
*113 _083_
*114 _084_
*115 _085_
*116 _086_
*117 _087_
*118 _088_
*119 _089_
*120 _090_
*121 _091_
*122 _092_
*123 _093_
*124 _094_
*125 _095_
*126 _096_
*127 _097_
*128 _098_
*129 _099_
*130 _100_
*131 _101_
*132 _102_
*133 _103_
*134 _104_
*135 _105_
*136 _106_
*137 _107_
*138 _108_
*139 _109_
*140 _110_
*141 _111_
*142 _112_
*143 _113_
*144 _114_
*145 _115_
*146 _116_
*147 _117_
*148 _118_
*149 clknet_0_clk
*150 clknet_1_0__leaf_clk
*151 clknet_1_1__leaf_clk
*152 dut32\.count\[0\]
*153 dut32\.count\[1\]
*154 dut32\.count\[2\]
*155 dut32\.count\[3\]
*156 net1
*157 net10
*158 net11
*159 net12
*160 net13
*161 net14
*162 net15
*163 net16
*164 net17
*165 net18
*166 net19
*167 net2
*168 net20
*169 net21
*170 net22
*171 net23
*172 net24
*173 net25
*174 net26
*175 net3
*176 net4
*177 net5
*178 net6
*179 net7
*180 net8
*181 net9
*182 ANTENNA__139__C
*183 ANTENNA__238__CLK
*184 ANTENNA__239__CLK
*185 ANTENNA__240__CLK
*186 ANTENNA__241__CLK
*187 ANTENNA__242__CLK
*188 ANTENNA__243__CLK
*189 ANTENNA__244__CLK
*190 ANTENNA__245__CLK
*191 ANTENNA__246__CLK
*192 ANTENNA__247__CLK
*193 ANTENNA__248__CLK
*194 ANTENNA__249__CLK
*195 ANTENNA__250__CLK
*196 ANTENNA__251__CLK
*197 ANTENNA__252__CLK
*198 ANTENNA__253__CLK
*199 ANTENNA__254__CLK
*200 ANTENNA__255__CLK
*201 ANTENNA__256__CLK
*202 ANTENNA__257__CLK
*203 ANTENNA__258__CLK
*204 ANTENNA__259__CLK
*205 ANTENNA__260__CLK
*206 ANTENNA__261__CLK
*207 ANTENNA__262__CLK
*208 ANTENNA__263__CLK
*209 ANTENNA_clkbuf_0_clk_I
*210 ANTENNA_output22_I
*211 FILLER_0_0_104
*212 FILLER_0_0_138
*213 FILLER_0_0_142
*214 FILLER_0_0_172
*215 FILLER_0_0_176
*216 FILLER_0_0_2
*217 FILLER_0_0_232
*218 FILLER_0_0_236
*219 FILLER_0_0_240
*220 FILLER_0_0_274
*221 FILLER_0_0_308
*222 FILLER_0_0_342
*223 FILLER_0_0_346
*224 FILLER_0_0_348
*225 FILLER_0_0_36
*226 FILLER_0_0_70
*227 FILLER_0_10_101
*228 FILLER_0_10_107
*229 FILLER_0_10_171
*230 FILLER_0_10_177
*231 FILLER_0_10_2
*232 FILLER_0_10_241
*233 FILLER_0_10_247
*234 FILLER_0_10_311
*235 FILLER_0_10_317
*236 FILLER_0_10_34
*237 FILLER_0_10_37
*238 FILLER_0_11_136
*239 FILLER_0_11_142
*240 FILLER_0_11_158
*241 FILLER_0_11_166
*242 FILLER_0_11_196
*243 FILLER_0_11_2
*244 FILLER_0_11_200
*245 FILLER_0_11_208
*246 FILLER_0_11_212
*247 FILLER_0_11_276
*248 FILLER_0_11_282
*249 FILLER_0_11_346
*250 FILLER_0_11_348
*251 FILLER_0_11_66
*252 FILLER_0_11_72
*253 FILLER_0_12_101
*254 FILLER_0_12_107
*255 FILLER_0_12_115
*256 FILLER_0_12_146
*257 FILLER_0_12_150
*258 FILLER_0_12_166
*259 FILLER_0_12_174
*260 FILLER_0_12_177
*261 FILLER_0_12_2
*262 FILLER_0_12_241
*263 FILLER_0_12_247
*264 FILLER_0_12_311
*265 FILLER_0_12_317
*266 FILLER_0_12_34
*267 FILLER_0_12_37
*268 FILLER_0_13_126
*269 FILLER_0_13_130
*270 FILLER_0_13_142
*271 FILLER_0_13_172
*272 FILLER_0_13_176
*273 FILLER_0_13_2
*274 FILLER_0_13_209
*275 FILLER_0_13_212
*276 FILLER_0_13_216
*277 FILLER_0_13_282
*278 FILLER_0_13_346
*279 FILLER_0_13_348
*280 FILLER_0_13_66
*281 FILLER_0_13_72
*282 FILLER_0_13_88
*283 FILLER_0_13_96
*284 FILLER_0_14_101
*285 FILLER_0_14_107
*286 FILLER_0_14_115
*287 FILLER_0_14_123
*288 FILLER_0_14_131
*289 FILLER_0_14_135
*290 FILLER_0_14_166
*291 FILLER_0_14_168
*292 FILLER_0_14_185
*293 FILLER_0_14_2
*294 FILLER_0_14_207
*295 FILLER_0_14_239
*296 FILLER_0_14_243
*297 FILLER_0_14_247
*298 FILLER_0_14_311
*299 FILLER_0_14_317
*300 FILLER_0_14_34
*301 FILLER_0_14_37
*302 FILLER_0_15_120
*303 FILLER_0_15_130
*304 FILLER_0_15_134
*305 FILLER_0_15_148
*306 FILLER_0_15_180
*307 FILLER_0_15_196
*308 FILLER_0_15_2
*309 FILLER_0_15_204
*310 FILLER_0_15_208
*311 FILLER_0_15_212
*312 FILLER_0_15_276
*313 FILLER_0_15_282
*314 FILLER_0_15_346
*315 FILLER_0_15_348
*316 FILLER_0_15_66
*317 FILLER_0_15_72
*318 FILLER_0_15_88
*319 FILLER_0_15_90
*320 FILLER_0_16_101
*321 FILLER_0_16_107
*322 FILLER_0_16_115
*323 FILLER_0_16_119
*324 FILLER_0_16_127
*325 FILLER_0_16_131
*326 FILLER_0_16_143
*327 FILLER_0_16_159
*328 FILLER_0_16_161
*329 FILLER_0_16_168
*330 FILLER_0_16_172
*331 FILLER_0_16_174
*332 FILLER_0_16_177
*333 FILLER_0_16_179
*334 FILLER_0_16_185
*335 FILLER_0_16_230
*336 FILLER_0_16_234
*337 FILLER_0_16_242
*338 FILLER_0_16_244
*339 FILLER_0_16_247
*340 FILLER_0_16_28
*341 FILLER_0_16_311
*342 FILLER_0_16_317
*343 FILLER_0_16_32
*344 FILLER_0_16_34
*345 FILLER_0_16_37
*346 FILLER_0_17_104
*347 FILLER_0_17_120
*348 FILLER_0_17_132
*349 FILLER_0_17_142
*350 FILLER_0_17_158
*351 FILLER_0_17_186
*352 FILLER_0_17_2
*353 FILLER_0_17_207
*354 FILLER_0_17_209
*355 FILLER_0_17_212
*356 FILLER_0_17_276
*357 FILLER_0_17_282
*358 FILLER_0_17_346
*359 FILLER_0_17_348
*360 FILLER_0_17_66
*361 FILLER_0_17_72
*362 FILLER_0_18_107
*363 FILLER_0_18_111
*364 FILLER_0_18_115
*365 FILLER_0_18_122
*366 FILLER_0_18_124
*367 FILLER_0_18_177
*368 FILLER_0_18_187
*369 FILLER_0_18_2
*370 FILLER_0_18_207
*371 FILLER_0_18_211
*372 FILLER_0_18_242
*373 FILLER_0_18_244
*374 FILLER_0_18_247
*375 FILLER_0_18_251
*376 FILLER_0_18_317
*377 FILLER_0_18_321
*378 FILLER_0_18_34
*379 FILLER_0_18_37
*380 FILLER_0_18_69
*381 FILLER_0_18_73
*382 FILLER_0_18_75
*383 FILLER_0_19_113
*384 FILLER_0_19_123
*385 FILLER_0_19_125
*386 FILLER_0_19_135
*387 FILLER_0_19_139
*388 FILLER_0_19_150
*389 FILLER_0_19_179
*390 FILLER_0_19_187
*391 FILLER_0_19_189
*392 FILLER_0_19_2
*393 FILLER_0_19_203
*394 FILLER_0_19_207
*395 FILLER_0_19_209
*396 FILLER_0_19_220
*397 FILLER_0_19_224
*398 FILLER_0_19_257
*399 FILLER_0_19_273
*400 FILLER_0_19_277
*401 FILLER_0_19_279
*402 FILLER_0_19_282
*403 FILLER_0_19_314
*404 FILLER_0_19_322
*405 FILLER_0_19_66
*406 FILLER_0_19_72
*407 FILLER_0_19_80
*408 FILLER_0_1_136
*409 FILLER_0_1_142
*410 FILLER_0_1_158
*411 FILLER_0_1_162
*412 FILLER_0_1_189
*413 FILLER_0_1_2
*414 FILLER_0_1_205
*415 FILLER_0_1_209
*416 FILLER_0_1_212
*417 FILLER_0_1_276
*418 FILLER_0_1_282
*419 FILLER_0_1_346
*420 FILLER_0_1_348
*421 FILLER_0_1_66
*422 FILLER_0_1_72
*423 FILLER_0_20_101
*424 FILLER_0_20_107
*425 FILLER_0_20_111
*426 FILLER_0_20_121
*427 FILLER_0_20_125
*428 FILLER_0_20_144
*429 FILLER_0_20_171
*430 FILLER_0_20_177
*431 FILLER_0_20_185
*432 FILLER_0_20_2
*433 FILLER_0_20_223
*434 FILLER_0_20_227
*435 FILLER_0_20_241
*436 FILLER_0_20_247
*437 FILLER_0_20_311
*438 FILLER_0_20_317
*439 FILLER_0_20_321
*440 FILLER_0_20_34
*441 FILLER_0_20_37
*442 FILLER_0_21_115
*443 FILLER_0_21_123
*444 FILLER_0_21_133
*445 FILLER_0_21_137
*446 FILLER_0_21_139
*447 FILLER_0_21_148
*448 FILLER_0_21_156
*449 FILLER_0_21_195
*450 FILLER_0_21_199
*451 FILLER_0_21_2
*452 FILLER_0_21_207
*453 FILLER_0_21_209
*454 FILLER_0_21_212
*455 FILLER_0_21_228
*456 FILLER_0_21_237
*457 FILLER_0_21_244
*458 FILLER_0_21_248
*459 FILLER_0_21_255
*460 FILLER_0_21_271
*461 FILLER_0_21_279
*462 FILLER_0_21_282
*463 FILLER_0_21_314
*464 FILLER_0_21_322
*465 FILLER_0_21_66
*466 FILLER_0_21_72
*467 FILLER_0_21_88
*468 FILLER_0_21_92
*469 FILLER_0_21_99
*470 FILLER_0_22_107
*471 FILLER_0_22_111
*472 FILLER_0_22_119
*473 FILLER_0_22_121
*474 FILLER_0_22_172
*475 FILLER_0_22_174
*476 FILLER_0_22_177
*477 FILLER_0_22_244
*478 FILLER_0_22_254
*479 FILLER_0_22_28
*480 FILLER_0_22_286
*481 FILLER_0_22_302
*482 FILLER_0_22_310
*483 FILLER_0_22_314
*484 FILLER_0_22_317
*485 FILLER_0_22_32
*486 FILLER_0_22_321
*487 FILLER_0_22_34
*488 FILLER_0_22_37
*489 FILLER_0_22_69
*490 FILLER_0_22_73
*491 FILLER_0_22_75
*492 FILLER_0_23_121
*493 FILLER_0_23_125
*494 FILLER_0_23_151
*495 FILLER_0_23_153
*496 FILLER_0_23_2
*497 FILLER_0_23_206
*498 FILLER_0_23_218
*499 FILLER_0_23_226
*500 FILLER_0_23_259
*501 FILLER_0_23_275
*502 FILLER_0_23_279
*503 FILLER_0_23_282
*504 FILLER_0_23_314
*505 FILLER_0_23_318
*506 FILLER_0_23_320
*507 FILLER_0_23_66
*508 FILLER_0_23_72
*509 FILLER_0_23_88
*510 FILLER_0_24_101
*511 FILLER_0_24_107
*512 FILLER_0_24_115
*513 FILLER_0_24_117
*514 FILLER_0_24_157
*515 FILLER_0_24_168
*516 FILLER_0_24_197
*517 FILLER_0_24_2
*518 FILLER_0_24_214
*519 FILLER_0_24_222
*520 FILLER_0_24_224
*521 FILLER_0_24_231
*522 FILLER_0_24_235
*523 FILLER_0_24_237
*524 FILLER_0_24_247
*525 FILLER_0_24_311
*526 FILLER_0_24_317
*527 FILLER_0_24_321
*528 FILLER_0_24_34
*529 FILLER_0_24_37
*530 FILLER_0_25_121
*531 FILLER_0_25_125
*532 FILLER_0_25_159
*533 FILLER_0_25_172
*534 FILLER_0_25_187
*535 FILLER_0_25_195
*536 FILLER_0_25_2
*537 FILLER_0_25_205
*538 FILLER_0_25_209
*539 FILLER_0_25_212
*540 FILLER_0_25_226
*541 FILLER_0_25_257
*542 FILLER_0_25_273
*543 FILLER_0_25_277
*544 FILLER_0_25_279
*545 FILLER_0_25_282
*546 FILLER_0_25_314
*547 FILLER_0_25_322
*548 FILLER_0_25_66
*549 FILLER_0_25_72
*550 FILLER_0_25_88
*551 FILLER_0_26_101
*552 FILLER_0_26_107
*553 FILLER_0_26_123
*554 FILLER_0_26_147
*555 FILLER_0_26_163
*556 FILLER_0_26_171
*557 FILLER_0_26_185
*558 FILLER_0_26_189
*559 FILLER_0_26_2
*560 FILLER_0_26_219
*561 FILLER_0_26_223
*562 FILLER_0_26_225
*563 FILLER_0_26_228
*564 FILLER_0_26_241
*565 FILLER_0_26_254
*566 FILLER_0_26_286
*567 FILLER_0_26_302
*568 FILLER_0_26_310
*569 FILLER_0_26_314
*570 FILLER_0_26_317
*571 FILLER_0_26_321
*572 FILLER_0_26_34
*573 FILLER_0_26_37
*574 FILLER_0_27_104
*575 FILLER_0_27_120
*576 FILLER_0_27_128
*577 FILLER_0_27_132
*578 FILLER_0_27_156
*579 FILLER_0_27_188
*580 FILLER_0_27_196
*581 FILLER_0_27_2
*582 FILLER_0_27_200
*583 FILLER_0_27_209
*584 FILLER_0_27_212
*585 FILLER_0_27_220
*586 FILLER_0_27_266
*587 FILLER_0_27_274
*588 FILLER_0_27_278
*589 FILLER_0_27_282
*590 FILLER_0_27_314
*591 FILLER_0_27_322
*592 FILLER_0_27_66
*593 FILLER_0_27_72
*594 FILLER_0_28_101
*595 FILLER_0_28_107
*596 FILLER_0_28_115
*597 FILLER_0_28_131
*598 FILLER_0_28_139
*599 FILLER_0_28_155
*600 FILLER_0_28_171
*601 FILLER_0_28_182
*602 FILLER_0_28_198
*603 FILLER_0_28_2
*604 FILLER_0_28_202
*605 FILLER_0_28_212
*606 FILLER_0_28_223
*607 FILLER_0_28_236
*608 FILLER_0_28_244
*609 FILLER_0_28_247
*610 FILLER_0_28_311
*611 FILLER_0_28_317
*612 FILLER_0_28_321
*613 FILLER_0_28_34
*614 FILLER_0_28_37
*615 FILLER_0_29_121
*616 FILLER_0_29_125
*617 FILLER_0_29_133
*618 FILLER_0_29_137
*619 FILLER_0_29_139
*620 FILLER_0_29_142
*621 FILLER_0_29_146
*622 FILLER_0_29_153
*623 FILLER_0_29_163
*624 FILLER_0_29_171
*625 FILLER_0_29_175
*626 FILLER_0_29_183
*627 FILLER_0_29_191
*628 FILLER_0_29_195
*629 FILLER_0_29_209
*630 FILLER_0_29_212
*631 FILLER_0_29_214
*632 FILLER_0_29_244
*633 FILLER_0_29_248
*634 FILLER_0_29_28
*635 FILLER_0_29_282
*636 FILLER_0_29_346
*637 FILLER_0_29_348
*638 FILLER_0_29_60
*639 FILLER_0_29_68
*640 FILLER_0_29_72
*641 FILLER_0_29_88
*642 FILLER_0_2_101
*643 FILLER_0_2_107
*644 FILLER_0_2_123
*645 FILLER_0_2_153
*646 FILLER_0_2_169
*647 FILLER_0_2_173
*648 FILLER_0_2_177
*649 FILLER_0_2_2
*650 FILLER_0_2_241
*651 FILLER_0_2_247
*652 FILLER_0_2_311
*653 FILLER_0_2_317
*654 FILLER_0_2_34
*655 FILLER_0_2_37
*656 FILLER_0_30_101
*657 FILLER_0_30_107
*658 FILLER_0_30_123
*659 FILLER_0_30_171
*660 FILLER_0_30_177
*661 FILLER_0_30_2
*662 FILLER_0_30_219
*663 FILLER_0_30_223
*664 FILLER_0_30_239
*665 FILLER_0_30_243
*666 FILLER_0_30_247
*667 FILLER_0_30_311
*668 FILLER_0_30_317
*669 FILLER_0_30_321
*670 FILLER_0_30_34
*671 FILLER_0_30_37
*672 FILLER_0_31_104
*673 FILLER_0_31_137
*674 FILLER_0_31_139
*675 FILLER_0_31_171
*676 FILLER_0_31_179
*677 FILLER_0_31_2
*678 FILLER_0_31_209
*679 FILLER_0_31_212
*680 FILLER_0_31_216
*681 FILLER_0_31_282
*682 FILLER_0_31_346
*683 FILLER_0_31_348
*684 FILLER_0_31_66
*685 FILLER_0_31_72
*686 FILLER_0_32_101
*687 FILLER_0_32_107
*688 FILLER_0_32_115
*689 FILLER_0_32_119
*690 FILLER_0_32_121
*691 FILLER_0_32_126
*692 FILLER_0_32_134
*693 FILLER_0_32_138
*694 FILLER_0_32_142
*695 FILLER_0_32_146
*696 FILLER_0_32_150
*697 FILLER_0_32_152
*698 FILLER_0_32_158
*699 FILLER_0_32_174
*700 FILLER_0_32_177
*701 FILLER_0_32_187
*702 FILLER_0_32_2
*703 FILLER_0_32_219
*704 FILLER_0_32_235
*705 FILLER_0_32_243
*706 FILLER_0_32_247
*707 FILLER_0_32_311
*708 FILLER_0_32_317
*709 FILLER_0_32_34
*710 FILLER_0_32_37
*711 FILLER_0_33_136
*712 FILLER_0_33_142
*713 FILLER_0_33_150
*714 FILLER_0_33_154
*715 FILLER_0_33_156
*716 FILLER_0_33_186
*717 FILLER_0_33_190
*718 FILLER_0_33_2
*719 FILLER_0_33_206
*720 FILLER_0_33_212
*721 FILLER_0_33_276
*722 FILLER_0_33_282
*723 FILLER_0_33_346
*724 FILLER_0_33_348
*725 FILLER_0_33_66
*726 FILLER_0_33_72
*727 FILLER_0_34_101
*728 FILLER_0_34_107
*729 FILLER_0_34_171
*730 FILLER_0_34_177
*731 FILLER_0_34_2
*732 FILLER_0_34_241
*733 FILLER_0_34_247
*734 FILLER_0_34_311
*735 FILLER_0_34_317
*736 FILLER_0_34_34
*737 FILLER_0_34_37
*738 FILLER_0_35_136
*739 FILLER_0_35_142
*740 FILLER_0_35_2
*741 FILLER_0_35_206
*742 FILLER_0_35_212
*743 FILLER_0_35_276
*744 FILLER_0_35_282
*745 FILLER_0_35_346
*746 FILLER_0_35_348
*747 FILLER_0_35_66
*748 FILLER_0_35_72
*749 FILLER_0_36_101
*750 FILLER_0_36_107
*751 FILLER_0_36_171
*752 FILLER_0_36_177
*753 FILLER_0_36_2
*754 FILLER_0_36_241
*755 FILLER_0_36_247
*756 FILLER_0_36_311
*757 FILLER_0_36_317
*758 FILLER_0_36_34
*759 FILLER_0_36_37
*760 FILLER_0_37_136
*761 FILLER_0_37_142
*762 FILLER_0_37_2
*763 FILLER_0_37_206
*764 FILLER_0_37_212
*765 FILLER_0_37_276
*766 FILLER_0_37_282
*767 FILLER_0_37_346
*768 FILLER_0_37_348
*769 FILLER_0_37_66
*770 FILLER_0_37_72
*771 FILLER_0_38_101
*772 FILLER_0_38_107
*773 FILLER_0_38_171
*774 FILLER_0_38_177
*775 FILLER_0_38_2
*776 FILLER_0_38_241
*777 FILLER_0_38_247
*778 FILLER_0_38_311
*779 FILLER_0_38_317
*780 FILLER_0_38_34
*781 FILLER_0_38_37
*782 FILLER_0_39_136
*783 FILLER_0_39_142
*784 FILLER_0_39_2
*785 FILLER_0_39_206
*786 FILLER_0_39_212
*787 FILLER_0_39_276
*788 FILLER_0_39_282
*789 FILLER_0_39_346
*790 FILLER_0_39_348
*791 FILLER_0_39_66
*792 FILLER_0_39_72
*793 FILLER_0_3_136
*794 FILLER_0_3_142
*795 FILLER_0_3_2
*796 FILLER_0_3_206
*797 FILLER_0_3_212
*798 FILLER_0_3_276
*799 FILLER_0_3_282
*800 FILLER_0_3_346
*801 FILLER_0_3_348
*802 FILLER_0_3_66
*803 FILLER_0_3_72
*804 FILLER_0_40_101
*805 FILLER_0_40_107
*806 FILLER_0_40_171
*807 FILLER_0_40_177
*808 FILLER_0_40_2
*809 FILLER_0_40_241
*810 FILLER_0_40_247
*811 FILLER_0_40_311
*812 FILLER_0_40_317
*813 FILLER_0_40_34
*814 FILLER_0_40_37
*815 FILLER_0_41_136
*816 FILLER_0_41_142
*817 FILLER_0_41_2
*818 FILLER_0_41_206
*819 FILLER_0_41_212
*820 FILLER_0_41_276
*821 FILLER_0_41_282
*822 FILLER_0_41_346
*823 FILLER_0_41_348
*824 FILLER_0_41_66
*825 FILLER_0_41_72
*826 FILLER_0_42_101
*827 FILLER_0_42_107
*828 FILLER_0_42_171
*829 FILLER_0_42_177
*830 FILLER_0_42_2
*831 FILLER_0_42_241
*832 FILLER_0_42_247
*833 FILLER_0_42_311
*834 FILLER_0_42_317
*835 FILLER_0_42_34
*836 FILLER_0_42_37
*837 FILLER_0_43_136
*838 FILLER_0_43_142
*839 FILLER_0_43_150
*840 FILLER_0_43_154
*841 FILLER_0_43_2
*842 FILLER_0_43_207
*843 FILLER_0_43_209
*844 FILLER_0_43_212
*845 FILLER_0_43_216
*846 FILLER_0_43_243
*847 FILLER_0_43_275
*848 FILLER_0_43_279
*849 FILLER_0_43_282
*850 FILLER_0_43_346
*851 FILLER_0_43_348
*852 FILLER_0_43_66
*853 FILLER_0_43_72
*854 FILLER_0_44_104
*855 FILLER_0_44_138
*856 FILLER_0_44_165
*857 FILLER_0_44_169
*858 FILLER_0_44_172
*859 FILLER_0_44_176
*860 FILLER_0_44_2
*861 FILLER_0_44_232
*862 FILLER_0_44_236
*863 FILLER_0_44_240
*864 FILLER_0_44_274
*865 FILLER_0_44_308
*866 FILLER_0_44_342
*867 FILLER_0_44_346
*868 FILLER_0_44_348
*869 FILLER_0_44_36
*870 FILLER_0_44_70
*871 FILLER_0_4_101
*872 FILLER_0_4_107
*873 FILLER_0_4_171
*874 FILLER_0_4_177
*875 FILLER_0_4_2
*876 FILLER_0_4_241
*877 FILLER_0_4_247
*878 FILLER_0_4_311
*879 FILLER_0_4_317
*880 FILLER_0_4_34
*881 FILLER_0_4_37
*882 FILLER_0_5_136
*883 FILLER_0_5_142
*884 FILLER_0_5_2
*885 FILLER_0_5_206
*886 FILLER_0_5_212
*887 FILLER_0_5_276
*888 FILLER_0_5_282
*889 FILLER_0_5_346
*890 FILLER_0_5_348
*891 FILLER_0_5_66
*892 FILLER_0_5_72
*893 FILLER_0_6_101
*894 FILLER_0_6_107
*895 FILLER_0_6_171
*896 FILLER_0_6_177
*897 FILLER_0_6_2
*898 FILLER_0_6_241
*899 FILLER_0_6_247
*900 FILLER_0_6_311
*901 FILLER_0_6_317
*902 FILLER_0_6_34
*903 FILLER_0_6_37
*904 FILLER_0_7_136
*905 FILLER_0_7_142
*906 FILLER_0_7_2
*907 FILLER_0_7_206
*908 FILLER_0_7_212
*909 FILLER_0_7_276
*910 FILLER_0_7_282
*911 FILLER_0_7_346
*912 FILLER_0_7_348
*913 FILLER_0_7_66
*914 FILLER_0_7_72
*915 FILLER_0_8_101
*916 FILLER_0_8_107
*917 FILLER_0_8_171
*918 FILLER_0_8_177
*919 FILLER_0_8_2
*920 FILLER_0_8_241
*921 FILLER_0_8_247
*922 FILLER_0_8_311
*923 FILLER_0_8_317
*924 FILLER_0_8_34
*925 FILLER_0_8_37
*926 FILLER_0_9_136
*927 FILLER_0_9_142
*928 FILLER_0_9_2
*929 FILLER_0_9_206
*930 FILLER_0_9_212
*931 FILLER_0_9_276
*932 FILLER_0_9_282
*933 FILLER_0_9_346
*934 FILLER_0_9_348
*935 FILLER_0_9_66
*936 FILLER_0_9_72
*937 PHY_EDGE_ROW_0_Left_45
*938 PHY_EDGE_ROW_0_Right_0
*939 PHY_EDGE_ROW_10_Left_55
*940 PHY_EDGE_ROW_10_Right_10
*941 PHY_EDGE_ROW_11_Left_56
*942 PHY_EDGE_ROW_11_Right_11
*943 PHY_EDGE_ROW_12_Left_57
*944 PHY_EDGE_ROW_12_Right_12
*945 PHY_EDGE_ROW_13_Left_58
*946 PHY_EDGE_ROW_13_Right_13
*947 PHY_EDGE_ROW_14_Left_59
*948 PHY_EDGE_ROW_14_Right_14
*949 PHY_EDGE_ROW_15_Left_60
*950 PHY_EDGE_ROW_15_Right_15
*951 PHY_EDGE_ROW_16_Left_61
*952 PHY_EDGE_ROW_16_Right_16
*953 PHY_EDGE_ROW_17_Left_62
*954 PHY_EDGE_ROW_17_Right_17
*955 PHY_EDGE_ROW_18_Left_63
*956 PHY_EDGE_ROW_18_Right_18
*957 PHY_EDGE_ROW_19_Left_64
*958 PHY_EDGE_ROW_19_Right_19
*959 PHY_EDGE_ROW_1_Left_46
*960 PHY_EDGE_ROW_1_Right_1
*961 PHY_EDGE_ROW_20_Left_65
*962 PHY_EDGE_ROW_20_Right_20
*963 PHY_EDGE_ROW_21_Left_66
*964 PHY_EDGE_ROW_21_Right_21
*965 PHY_EDGE_ROW_22_Left_67
*966 PHY_EDGE_ROW_22_Right_22
*967 PHY_EDGE_ROW_23_Left_68
*968 PHY_EDGE_ROW_23_Right_23
*969 PHY_EDGE_ROW_24_Left_69
*970 PHY_EDGE_ROW_24_Right_24
*971 PHY_EDGE_ROW_25_Left_70
*972 PHY_EDGE_ROW_25_Right_25
*973 PHY_EDGE_ROW_26_Left_71
*974 PHY_EDGE_ROW_26_Right_26
*975 PHY_EDGE_ROW_27_Left_72
*976 PHY_EDGE_ROW_27_Right_27
*977 PHY_EDGE_ROW_28_Left_73
*978 PHY_EDGE_ROW_28_Right_28
*979 PHY_EDGE_ROW_29_Left_74
*980 PHY_EDGE_ROW_29_Right_29
*981 PHY_EDGE_ROW_2_Left_47
*982 PHY_EDGE_ROW_2_Right_2
*983 PHY_EDGE_ROW_30_Left_75
*984 PHY_EDGE_ROW_30_Right_30
*985 PHY_EDGE_ROW_31_Left_76
*986 PHY_EDGE_ROW_31_Right_31
*987 PHY_EDGE_ROW_32_Left_77
*988 PHY_EDGE_ROW_32_Right_32
*989 PHY_EDGE_ROW_33_Left_78
*990 PHY_EDGE_ROW_33_Right_33
*991 PHY_EDGE_ROW_34_Left_79
*992 PHY_EDGE_ROW_34_Right_34
*993 PHY_EDGE_ROW_35_Left_80
*994 PHY_EDGE_ROW_35_Right_35
*995 PHY_EDGE_ROW_36_Left_81
*996 PHY_EDGE_ROW_36_Right_36
*997 PHY_EDGE_ROW_37_Left_82
*998 PHY_EDGE_ROW_37_Right_37
*999 PHY_EDGE_ROW_38_Left_83
*1000 PHY_EDGE_ROW_38_Right_38
*1001 PHY_EDGE_ROW_39_Left_84
*1002 PHY_EDGE_ROW_39_Right_39
*1003 PHY_EDGE_ROW_3_Left_48
*1004 PHY_EDGE_ROW_3_Right_3
*1005 PHY_EDGE_ROW_40_Left_85
*1006 PHY_EDGE_ROW_40_Right_40
*1007 PHY_EDGE_ROW_41_Left_86
*1008 PHY_EDGE_ROW_41_Right_41
*1009 PHY_EDGE_ROW_42_Left_87
*1010 PHY_EDGE_ROW_42_Right_42
*1011 PHY_EDGE_ROW_43_Left_88
*1012 PHY_EDGE_ROW_43_Right_43
*1013 PHY_EDGE_ROW_44_Left_89
*1014 PHY_EDGE_ROW_44_Right_44
*1015 PHY_EDGE_ROW_4_Left_49
*1016 PHY_EDGE_ROW_4_Right_4
*1017 PHY_EDGE_ROW_5_Left_50
*1018 PHY_EDGE_ROW_5_Right_5
*1019 PHY_EDGE_ROW_6_Left_51
*1020 PHY_EDGE_ROW_6_Right_6
*1021 PHY_EDGE_ROW_7_Left_52
*1022 PHY_EDGE_ROW_7_Right_7
*1023 PHY_EDGE_ROW_8_Left_53
*1024 PHY_EDGE_ROW_8_Right_8
*1025 PHY_EDGE_ROW_9_Left_54
*1026 PHY_EDGE_ROW_9_Right_9
*1027 TAP_TAPCELL_ROW_0_90
*1028 TAP_TAPCELL_ROW_0_91
*1029 TAP_TAPCELL_ROW_0_92
*1030 TAP_TAPCELL_ROW_0_93
*1031 TAP_TAPCELL_ROW_0_94
*1032 TAP_TAPCELL_ROW_0_95
*1033 TAP_TAPCELL_ROW_0_96
*1034 TAP_TAPCELL_ROW_0_97
*1035 TAP_TAPCELL_ROW_0_98
*1036 TAP_TAPCELL_ROW_0_99
*1037 TAP_TAPCELL_ROW_10_140
*1038 TAP_TAPCELL_ROW_10_141
*1039 TAP_TAPCELL_ROW_10_142
*1040 TAP_TAPCELL_ROW_10_143
*1041 TAP_TAPCELL_ROW_10_144
*1042 TAP_TAPCELL_ROW_11_145
*1043 TAP_TAPCELL_ROW_11_146
*1044 TAP_TAPCELL_ROW_11_147
*1045 TAP_TAPCELL_ROW_11_148
*1046 TAP_TAPCELL_ROW_12_149
*1047 TAP_TAPCELL_ROW_12_150
*1048 TAP_TAPCELL_ROW_12_151
*1049 TAP_TAPCELL_ROW_12_152
*1050 TAP_TAPCELL_ROW_12_153
*1051 TAP_TAPCELL_ROW_13_154
*1052 TAP_TAPCELL_ROW_13_155
*1053 TAP_TAPCELL_ROW_13_156
*1054 TAP_TAPCELL_ROW_13_157
*1055 TAP_TAPCELL_ROW_14_158
*1056 TAP_TAPCELL_ROW_14_159
*1057 TAP_TAPCELL_ROW_14_160
*1058 TAP_TAPCELL_ROW_14_161
*1059 TAP_TAPCELL_ROW_14_162
*1060 TAP_TAPCELL_ROW_15_163
*1061 TAP_TAPCELL_ROW_15_164
*1062 TAP_TAPCELL_ROW_15_165
*1063 TAP_TAPCELL_ROW_15_166
*1064 TAP_TAPCELL_ROW_16_167
*1065 TAP_TAPCELL_ROW_16_168
*1066 TAP_TAPCELL_ROW_16_169
*1067 TAP_TAPCELL_ROW_16_170
*1068 TAP_TAPCELL_ROW_16_171
*1069 TAP_TAPCELL_ROW_17_172
*1070 TAP_TAPCELL_ROW_17_173
*1071 TAP_TAPCELL_ROW_17_174
*1072 TAP_TAPCELL_ROW_17_175
*1073 TAP_TAPCELL_ROW_18_176
*1074 TAP_TAPCELL_ROW_18_177
*1075 TAP_TAPCELL_ROW_18_178
*1076 TAP_TAPCELL_ROW_18_179
*1077 TAP_TAPCELL_ROW_18_180
*1078 TAP_TAPCELL_ROW_19_181
*1079 TAP_TAPCELL_ROW_19_182
*1080 TAP_TAPCELL_ROW_19_183
*1081 TAP_TAPCELL_ROW_19_184
*1082 TAP_TAPCELL_ROW_1_100
*1083 TAP_TAPCELL_ROW_1_101
*1084 TAP_TAPCELL_ROW_1_102
*1085 TAP_TAPCELL_ROW_1_103
*1086 TAP_TAPCELL_ROW_20_185
*1087 TAP_TAPCELL_ROW_20_186
*1088 TAP_TAPCELL_ROW_20_187
*1089 TAP_TAPCELL_ROW_20_188
*1090 TAP_TAPCELL_ROW_20_189
*1091 TAP_TAPCELL_ROW_21_190
*1092 TAP_TAPCELL_ROW_21_191
*1093 TAP_TAPCELL_ROW_21_192
*1094 TAP_TAPCELL_ROW_21_193
*1095 TAP_TAPCELL_ROW_22_194
*1096 TAP_TAPCELL_ROW_22_195
*1097 TAP_TAPCELL_ROW_22_196
*1098 TAP_TAPCELL_ROW_22_197
*1099 TAP_TAPCELL_ROW_22_198
*1100 TAP_TAPCELL_ROW_23_199
*1101 TAP_TAPCELL_ROW_23_200
*1102 TAP_TAPCELL_ROW_23_201
*1103 TAP_TAPCELL_ROW_23_202
*1104 TAP_TAPCELL_ROW_24_203
*1105 TAP_TAPCELL_ROW_24_204
*1106 TAP_TAPCELL_ROW_24_205
*1107 TAP_TAPCELL_ROW_24_206
*1108 TAP_TAPCELL_ROW_24_207
*1109 TAP_TAPCELL_ROW_25_208
*1110 TAP_TAPCELL_ROW_25_209
*1111 TAP_TAPCELL_ROW_25_210
*1112 TAP_TAPCELL_ROW_25_211
*1113 TAP_TAPCELL_ROW_26_212
*1114 TAP_TAPCELL_ROW_26_213
*1115 TAP_TAPCELL_ROW_26_214
*1116 TAP_TAPCELL_ROW_26_215
*1117 TAP_TAPCELL_ROW_26_216
*1118 TAP_TAPCELL_ROW_27_217
*1119 TAP_TAPCELL_ROW_27_218
*1120 TAP_TAPCELL_ROW_27_219
*1121 TAP_TAPCELL_ROW_27_220
*1122 TAP_TAPCELL_ROW_28_221
*1123 TAP_TAPCELL_ROW_28_222
*1124 TAP_TAPCELL_ROW_28_223
*1125 TAP_TAPCELL_ROW_28_224
*1126 TAP_TAPCELL_ROW_28_225
*1127 TAP_TAPCELL_ROW_29_226
*1128 TAP_TAPCELL_ROW_29_227
*1129 TAP_TAPCELL_ROW_29_228
*1130 TAP_TAPCELL_ROW_29_229
*1131 TAP_TAPCELL_ROW_2_104
*1132 TAP_TAPCELL_ROW_2_105
*1133 TAP_TAPCELL_ROW_2_106
*1134 TAP_TAPCELL_ROW_2_107
*1135 TAP_TAPCELL_ROW_2_108
*1136 TAP_TAPCELL_ROW_30_230
*1137 TAP_TAPCELL_ROW_30_231
*1138 TAP_TAPCELL_ROW_30_232
*1139 TAP_TAPCELL_ROW_30_233
*1140 TAP_TAPCELL_ROW_30_234
*1141 TAP_TAPCELL_ROW_31_235
*1142 TAP_TAPCELL_ROW_31_236
*1143 TAP_TAPCELL_ROW_31_237
*1144 TAP_TAPCELL_ROW_31_238
*1145 TAP_TAPCELL_ROW_32_239
*1146 TAP_TAPCELL_ROW_32_240
*1147 TAP_TAPCELL_ROW_32_241
*1148 TAP_TAPCELL_ROW_32_242
*1149 TAP_TAPCELL_ROW_32_243
*1150 TAP_TAPCELL_ROW_33_244
*1151 TAP_TAPCELL_ROW_33_245
*1152 TAP_TAPCELL_ROW_33_246
*1153 TAP_TAPCELL_ROW_33_247
*1154 TAP_TAPCELL_ROW_34_248
*1155 TAP_TAPCELL_ROW_34_249
*1156 TAP_TAPCELL_ROW_34_250
*1157 TAP_TAPCELL_ROW_34_251
*1158 TAP_TAPCELL_ROW_34_252
*1159 TAP_TAPCELL_ROW_35_253
*1160 TAP_TAPCELL_ROW_35_254
*1161 TAP_TAPCELL_ROW_35_255
*1162 TAP_TAPCELL_ROW_35_256
*1163 TAP_TAPCELL_ROW_36_257
*1164 TAP_TAPCELL_ROW_36_258
*1165 TAP_TAPCELL_ROW_36_259
*1166 TAP_TAPCELL_ROW_36_260
*1167 TAP_TAPCELL_ROW_36_261
*1168 TAP_TAPCELL_ROW_37_262
*1169 TAP_TAPCELL_ROW_37_263
*1170 TAP_TAPCELL_ROW_37_264
*1171 TAP_TAPCELL_ROW_37_265
*1172 TAP_TAPCELL_ROW_38_266
*1173 TAP_TAPCELL_ROW_38_267
*1174 TAP_TAPCELL_ROW_38_268
*1175 TAP_TAPCELL_ROW_38_269
*1176 TAP_TAPCELL_ROW_38_270
*1177 TAP_TAPCELL_ROW_39_271
*1178 TAP_TAPCELL_ROW_39_272
*1179 TAP_TAPCELL_ROW_39_273
*1180 TAP_TAPCELL_ROW_39_274
*1181 TAP_TAPCELL_ROW_3_109
*1182 TAP_TAPCELL_ROW_3_110
*1183 TAP_TAPCELL_ROW_3_111
*1184 TAP_TAPCELL_ROW_3_112
*1185 TAP_TAPCELL_ROW_40_275
*1186 TAP_TAPCELL_ROW_40_276
*1187 TAP_TAPCELL_ROW_40_277
*1188 TAP_TAPCELL_ROW_40_278
*1189 TAP_TAPCELL_ROW_40_279
*1190 TAP_TAPCELL_ROW_41_280
*1191 TAP_TAPCELL_ROW_41_281
*1192 TAP_TAPCELL_ROW_41_282
*1193 TAP_TAPCELL_ROW_41_283
*1194 TAP_TAPCELL_ROW_42_284
*1195 TAP_TAPCELL_ROW_42_285
*1196 TAP_TAPCELL_ROW_42_286
*1197 TAP_TAPCELL_ROW_42_287
*1198 TAP_TAPCELL_ROW_42_288
*1199 TAP_TAPCELL_ROW_43_289
*1200 TAP_TAPCELL_ROW_43_290
*1201 TAP_TAPCELL_ROW_43_291
*1202 TAP_TAPCELL_ROW_43_292
*1203 TAP_TAPCELL_ROW_44_293
*1204 TAP_TAPCELL_ROW_44_294
*1205 TAP_TAPCELL_ROW_44_295
*1206 TAP_TAPCELL_ROW_44_296
*1207 TAP_TAPCELL_ROW_44_297
*1208 TAP_TAPCELL_ROW_44_298
*1209 TAP_TAPCELL_ROW_44_299
*1210 TAP_TAPCELL_ROW_44_300
*1211 TAP_TAPCELL_ROW_44_301
*1212 TAP_TAPCELL_ROW_44_302
*1213 TAP_TAPCELL_ROW_4_113
*1214 TAP_TAPCELL_ROW_4_114
*1215 TAP_TAPCELL_ROW_4_115
*1216 TAP_TAPCELL_ROW_4_116
*1217 TAP_TAPCELL_ROW_4_117
*1218 TAP_TAPCELL_ROW_5_118
*1219 TAP_TAPCELL_ROW_5_119
*1220 TAP_TAPCELL_ROW_5_120
*1221 TAP_TAPCELL_ROW_5_121
*1222 TAP_TAPCELL_ROW_6_122
*1223 TAP_TAPCELL_ROW_6_123
*1224 TAP_TAPCELL_ROW_6_124
*1225 TAP_TAPCELL_ROW_6_125
*1226 TAP_TAPCELL_ROW_6_126
*1227 TAP_TAPCELL_ROW_7_127
*1228 TAP_TAPCELL_ROW_7_128
*1229 TAP_TAPCELL_ROW_7_129
*1230 TAP_TAPCELL_ROW_7_130
*1231 TAP_TAPCELL_ROW_8_131
*1232 TAP_TAPCELL_ROW_8_132
*1233 TAP_TAPCELL_ROW_8_133
*1234 TAP_TAPCELL_ROW_8_134
*1235 TAP_TAPCELL_ROW_8_135
*1236 TAP_TAPCELL_ROW_9_136
*1237 TAP_TAPCELL_ROW_9_137
*1238 TAP_TAPCELL_ROW_9_138
*1239 TAP_TAPCELL_ROW_9_139
*1240 _119_
*1241 _120_
*1242 _121_
*1243 _122_
*1244 _123_
*1245 _124_
*1246 _125_
*1247 _126_
*1248 _127_
*1249 _128_
*1250 _129_
*1251 _130_
*1252 _131_
*1253 _132_
*1254 _133_
*1255 _134_
*1256 _135_
*1257 _136_
*1258 _137_
*1259 _138_
*1260 _139_
*1261 _140_
*1262 _141_
*1263 _142_
*1264 _143_
*1265 _144_
*1266 _145_
*1267 _146_
*1268 _147_
*1269 _148_
*1270 _149_
*1271 _150_
*1272 _151_
*1273 _152_
*1274 _153_
*1275 _154_
*1276 _155_
*1277 _156_
*1278 _157_
*1279 _158_
*1280 _159_
*1281 _160_
*1282 _161_
*1283 _162_
*1284 _163_
*1285 _164_
*1286 _165_
*1287 _166_
*1288 _167_
*1289 _168_
*1290 _169_
*1291 _170_
*1292 _171_
*1293 _172_
*1294 _173_
*1295 _174_
*1296 _175_
*1297 _176_
*1298 _177_
*1299 _178_
*1300 _179_
*1301 _180_
*1302 _181_
*1303 _182_
*1304 _183_
*1305 _184_
*1306 _185_
*1307 _186_
*1308 _187_
*1309 _188_
*1310 _189_
*1311 _190_
*1312 _191_
*1313 _192_
*1314 _193_
*1315 _194_
*1316 _195_
*1317 _196_
*1318 _197_
*1319 _198_
*1320 _199_
*1321 _200_
*1322 _201_
*1323 _202_
*1324 _203_
*1325 _204_
*1326 _205_
*1327 _206_
*1328 _207_
*1329 _208_
*1330 _209_
*1331 _210_
*1332 _211_
*1333 _212_
*1334 _213_
*1335 _214_
*1336 _215_
*1337 _216_
*1338 _217_
*1339 _218_
*1340 _219_
*1341 _220_
*1342 _221_
*1343 _222_
*1344 _223_
*1345 _224_
*1346 _225_
*1347 _226_
*1348 _227_
*1349 _228_
*1350 _229_
*1351 _230_
*1352 _231_
*1353 _232_
*1354 _233_
*1355 _234_
*1356 _235_
*1357 _236_
*1358 _237_
*1359 _238_
*1360 _239_
*1361 _240_
*1362 _241_
*1363 _242_
*1364 _243_
*1365 _244_
*1366 _245_
*1367 _246_
*1368 _247_
*1369 _248_
*1370 _249_
*1371 _250_
*1372 _251_
*1373 _252_
*1374 _253_
*1375 _254_
*1376 _255_
*1377 _256_
*1378 _257_
*1379 _258_
*1380 _259_
*1381 _260_
*1382 _261_
*1383 _262_
*1384 _263_
*1385 _264_
*1386 _265_
*1387 _266_
*1388 _267_
*1389 clkbuf_0_clk
*1390 clkbuf_1_0__f_clk
*1391 clkbuf_1_1__f_clk
*1392 output1
*1393 output10
*1394 output11
*1395 output12
*1396 output13
*1397 output14
*1398 output15
*1399 output16
*1400 output17
*1401 output18
*1402 output19
*1403 output2
*1404 output20
*1405 output21
*1406 output22
*1407 output23
*1408 output24
*1409 output25
*1410 output26
*1411 output3
*1412 output4
*1413 output5
*1414 output6
*1415 output7
*1416 output8
*1417 output9

*PORTS
clk I
segm[0] O
segm[10] O
segm[11] O
segm[12] O
segm[13] O
segm[1] O
segm[2] O
segm[3] O
segm[4] O
segm[5] O
segm[6] O
segm[7] O
segm[8] O
segm[9] O
sel[0] O
sel[10] O
sel[11] O
sel[1] O
sel[2] O
sel[3] O
sel[4] O
sel[5] O
sel[6] O
sel[7] O
sel[8] O
sel[9] O

*D_NET *1 0.0140273
*CONN
*P clk I
*I *1389:I I *D gf180mcu_fd_sc_mcu7t5v0__clkbuf_16
*I *209:I I *D gf180mcu_fd_sc_mcu7t5v0__antenna
*CAP
1 clk 0.00242403
2 *1389:I 8.1186e-05
3 *209:I 0
4 *1:15 0.00229742
5 *1:11 0.00464026
6 *1389:I *1308:A1 5.06028e-05
7 *1389:I *134:23 0
8 *1:15 *1258:A1 0.000147017
9 *1:15 *1269:A2 0.00116703
10 *1:15 *1308:A1 0.00240234
11 *1:15 *1398:I 0.000419035
12 *1:15 *134:23 0
13 *1:15 *155:10 6.55507e-05
14 *1:15 *155:14 0.000332863
*RES
1 clk *1:11 27.044 
2 *1:11 *1:15 27.248 
3 *1:15 *209:I 9 
4 *1:15 *1389:I 9.728 
*END

*D_NET *2 0.00101161
*CONN
*P segm[0] O
*I *1392:Z O *D gf180mcu_fd_sc_mcu7t5v0__buf_8
*CAP
1 segm[0] 0.000475478
2 *1392:Z 0.000475478
3 segm[0] sel[9] 6.0656e-05
*RES
1 *1392:Z segm[0] 12.692 
*END

*D_NET *3 0.00248605
*CONN
*P segm[10] O
*I *1403:Z O *D gf180mcu_fd_sc_mcu7t5v0__buf_8