*SPEF "ieee 1481-1999"
*DESIGN "ita36"
*DATE "11:11:11 Fri 11 11, 1111"
*VENDOR "OpenRCX"
*PROGRAM "Parallel Extraction"
*VERSION "1.0"
*DESIGN_FLOW "NAME_SCOPE LOCAL" "PIN_CAP NONE"
*DIVIDER /
*DELIMITER :
*BUS_DELIMITER []
*T_UNIT 1 NS
*C_UNIT 1 PF
*R_UNIT 1 OHM
*L_UNIT 1 HENRY

*NAME_MAP
*1 clk
*2 net23
*3 segm[10]
*4 segm[11]
*5 segm[12]
*6 segm[13]
*7 segm[1]
*8 net24
*9 net25
*10 segm[4]
*11 net26
*12 segm[6]
*13 segm[7]
*14 segm[8]
*15 segm[9]
*16 sel[0]
*17 sel[10]
*18 sel[11]
*19 sel[1]
*20 sel[2]
*21 sel[3]
*22 sel[4]
*23 sel[5]
*24 sel[6]
*25 sel[7]
*26 sel[8]
*27 sel[9]
*30 _000_
*31 _001_
*32 _002_
*33 _003_
*34 _004_
*35 _005_
*36 _006_
*37 _007_
*38 _008_
*39 _009_
*40 _010_
*41 _011_
*42 _012_
*43 _013_
*44 _014_
*45 _015_
*46 _016_
*47 _017_
*48 _018_
*49 _019_
*50 _020_
*51 _021_
*52 _022_
*53 _023_
*54 _024_
*55 _025_
*56 _026_
*57 _027_
*58 _028_
*59 _029_
*60 _030_
*61 _031_
*62 _032_
*63 _033_
*64 _034_
*65 _035_
*66 _036_
*67 _037_
*68 _038_
*69 _039_
*70 _040_
*71 _041_
*72 _042_
*73 _043_
*74 _044_
*75 _045_
*76 _046_
*77 _047_
*78 _048_
*79 _049_
*80 _050_
*81 _051_
*82 _052_
*83 _053_
*84 _054_
*85 _055_
*86 _056_
*87 _057_
*88 _058_
*89 _059_
*90 _060_
*91 _061_
*92 _062_
*93 _063_
*94 _064_
*95 _065_
*96 _066_
*97 _067_
*98 _068_
*99 _069_
*100 _070_
*101 _071_
*102 _072_
*103 _073_
*104 _074_
*105 _075_
*106 _076_
*107 _077_
*108 _078_
*109 _079_
*110 _080_
*111 _081_
*112 _082_
*113 _083_
*114 _084_
*115 _085_
*116 _086_
*117 _087_
*118 _088_
*119 _089_
*120 _090_
*121 clknet_0_clk
*122 clknet_1_0__leaf_clk
*123 clknet_1_1__leaf_clk
*124 dut36\.count\[0\]
*125 dut36\.count\[1\]
*126 dut36\.count\[2\]
*127 dut36\.count\[3\]
*128 net1
*129 net10
*130 net11
*131 net12
*132 net13
*133 net14
*134 net15
*135 net16
*136 net17
*137 net18
*138 net19
*139 net2
*140 net20
*141 net21
*142 net22
*143 net3
*144 net4
*145 net5
*146 net6
*147 net7
*148 net8
*149 net9
*150 ANTENNA__184__CLK
*151 ANTENNA__188__CLK
*152 ANTENNA__189__CLK
*153 ANTENNA__190__CLK
*154 ANTENNA__192__CLK
*155 ANTENNA__194__CLK
*156 ANTENNA__195__CLK
*157 ANTENNA__196__CLK
*158 ANTENNA__197__CLK
*159 ANTENNA__198__CLK
*160 ANTENNA__199__CLK
*161 ANTENNA_clkbuf_0_clk_I
*162 FILLER_0_0_104
*163 FILLER_0_0_120
*164 FILLER_0_0_124
*165 FILLER_0_0_126
*166 FILLER_0_0_131
*167 FILLER_0_0_135
*168 FILLER_0_0_138
*169 FILLER_0_0_142
*170 FILLER_0_0_198
*171 FILLER_0_0_2
*172 FILLER_0_0_202
*173 FILLER_0_0_206
*174 FILLER_0_0_240
*175 FILLER_0_0_274
*176 FILLER_0_0_308
*177 FILLER_0_0_342
*178 FILLER_0_0_346
*179 FILLER_0_0_348
*180 FILLER_0_0_36
*181 FILLER_0_0_70
*182 FILLER_0_10_101
*183 FILLER_0_10_107
*184 FILLER_0_10_171
*185 FILLER_0_10_177
*186 FILLER_0_10_2
*187 FILLER_0_10_241
*188 FILLER_0_10_247
*189 FILLER_0_10_311
*190 FILLER_0_10_317
*191 FILLER_0_10_34
*192 FILLER_0_10_37
*193 FILLER_0_11_136
*194 FILLER_0_11_142
*195 FILLER_0_11_2
*196 FILLER_0_11_206
*197 FILLER_0_11_212
*198 FILLER_0_11_276
*199 FILLER_0_11_282
*200 FILLER_0_11_346
*201 FILLER_0_11_348
*202 FILLER_0_11_66
*203 FILLER_0_11_72
*204 FILLER_0_12_101
*205 FILLER_0_12_107
*206 FILLER_0_12_171
*207 FILLER_0_12_177
*208 FILLER_0_12_2
*209 FILLER_0_12_241
*210 FILLER_0_12_247
*211 FILLER_0_12_311
*212 FILLER_0_12_317
*213 FILLER_0_12_34
*214 FILLER_0_12_37
*215 FILLER_0_13_136
*216 FILLER_0_13_142
*217 FILLER_0_13_2
*218 FILLER_0_13_206
*219 FILLER_0_13_212
*220 FILLER_0_13_276
*221 FILLER_0_13_282
*222 FILLER_0_13_346
*223 FILLER_0_13_348
*224 FILLER_0_13_66
*225 FILLER_0_13_72
*226 FILLER_0_14_101
*227 FILLER_0_14_107
*228 FILLER_0_14_123
*229 FILLER_0_14_125
*230 FILLER_0_14_155
*231 FILLER_0_14_171
*232 FILLER_0_14_177
*233 FILLER_0_14_193
*234 FILLER_0_14_2
*235 FILLER_0_14_201
*236 FILLER_0_14_205
*237 FILLER_0_14_209
*238 FILLER_0_14_241
*239 FILLER_0_14_247
*240 FILLER_0_14_311
*241 FILLER_0_14_317
*242 FILLER_0_14_34
*243 FILLER_0_14_37
*244 FILLER_0_15_124
*245 FILLER_0_15_142
*246 FILLER_0_15_2
*247 FILLER_0_15_207
*248 FILLER_0_15_209
*249 FILLER_0_15_212
*250 FILLER_0_15_243
*251 FILLER_0_15_247
*252 FILLER_0_15_279
*253 FILLER_0_15_282
*254 FILLER_0_15_346
*255 FILLER_0_15_348
*256 FILLER_0_15_66
*257 FILLER_0_15_72
*258 FILLER_0_15_88
*259 FILLER_0_15_92
*260 FILLER_0_15_94
*261 FILLER_0_16_113
*262 FILLER_0_16_119
*263 FILLER_0_16_135
*264 FILLER_0_16_145
*265 FILLER_0_16_161
*266 FILLER_0_16_165
*267 FILLER_0_16_171
*268 FILLER_0_16_177
*269 FILLER_0_16_185
*270 FILLER_0_16_189
*271 FILLER_0_16_191
*272 FILLER_0_16_243
*273 FILLER_0_16_247
*274 FILLER_0_16_28
*275 FILLER_0_16_311
*276 FILLER_0_16_317
*277 FILLER_0_16_32
*278 FILLER_0_16_321
*279 FILLER_0_16_34
*280 FILLER_0_16_37
*281 FILLER_0_16_69
*282 FILLER_0_16_73
*283 FILLER_0_16_75
*284 FILLER_0_17_108
*285 FILLER_0_17_119
*286 FILLER_0_17_123
*287 FILLER_0_17_130
*288 FILLER_0_17_138
*289 FILLER_0_17_171
*290 FILLER_0_17_179
*291 FILLER_0_17_187
*292 FILLER_0_17_189
*293 FILLER_0_17_194
*294 FILLER_0_17_231
*295 FILLER_0_17_235
*296 FILLER_0_17_267
*297 FILLER_0_17_275
*298 FILLER_0_17_279
*299 FILLER_0_17_28
*300 FILLER_0_17_282
*301 FILLER_0_17_314
*302 FILLER_0_17_322
*303 FILLER_0_17_60
*304 FILLER_0_17_68
*305 FILLER_0_17_72
*306 FILLER_0_18_101
*307 FILLER_0_18_117
*308 FILLER_0_18_121
*309 FILLER_0_18_152
*310 FILLER_0_18_154
*311 FILLER_0_18_177
*312 FILLER_0_18_202
*313 FILLER_0_18_234
*314 FILLER_0_18_240
*315 FILLER_0_18_244
*316 FILLER_0_18_247
*317 FILLER_0_18_28
*318 FILLER_0_18_311
*319 FILLER_0_18_317
*320 FILLER_0_18_32
*321 FILLER_0_18_34
*322 FILLER_0_18_37
*323 FILLER_0_19_111
*324 FILLER_0_19_113
*325 FILLER_0_19_120
*326 FILLER_0_19_136
*327 FILLER_0_19_142
*328 FILLER_0_19_150
*329 FILLER_0_19_152
*330 FILLER_0_19_164
*331 FILLER_0_19_177
*332 FILLER_0_19_179
*333 FILLER_0_19_2
*334 FILLER_0_19_202
*335 FILLER_0_19_212
*336 FILLER_0_19_220
*337 FILLER_0_19_222
*338 FILLER_0_19_252
*339 FILLER_0_19_256
*340 FILLER_0_19_272
*341 FILLER_0_19_282
*342 FILLER_0_19_314
*343 FILLER_0_19_322
*344 FILLER_0_19_66
*345 FILLER_0_19_72
*346 FILLER_0_19_88
*347 FILLER_0_19_90
*348 FILLER_0_19_95
*349 FILLER_0_19_99
*350 FILLER_0_1_136
*351 FILLER_0_1_142
*352 FILLER_0_1_2
*353 FILLER_0_1_206
*354 FILLER_0_1_212
*355 FILLER_0_1_276
*356 FILLER_0_1_282
*357 FILLER_0_1_346
*358 FILLER_0_1_348
*359 FILLER_0_1_66
*360 FILLER_0_1_72
*361 FILLER_0_20_107
*362 FILLER_0_20_109
*363 FILLER_0_20_116
*364 FILLER_0_20_132
*365 FILLER_0_20_140
*366 FILLER_0_20_169
*367 FILLER_0_20_173
*368 FILLER_0_20_177
*369 FILLER_0_20_185
*370 FILLER_0_20_191
*371 FILLER_0_20_202
*372 FILLER_0_20_210
*373 FILLER_0_20_214
*374 FILLER_0_20_255
*375 FILLER_0_20_259
*376 FILLER_0_20_28
*377 FILLER_0_20_291
*378 FILLER_0_20_307
*379 FILLER_0_20_317
*380 FILLER_0_20_32
*381 FILLER_0_20_34
*382 FILLER_0_20_37
*383 FILLER_0_20_69
*384 FILLER_0_20_73
*385 FILLER_0_20_75
*386 FILLER_0_21_100
*387 FILLER_0_21_102
*388 FILLER_0_21_113
*389 FILLER_0_21_129
*390 FILLER_0_21_137
*391 FILLER_0_21_139
*392 FILLER_0_21_142
*393 FILLER_0_21_146
*394 FILLER_0_21_167
*395 FILLER_0_21_175
*396 FILLER_0_21_183
*397 FILLER_0_21_189
*398 FILLER_0_21_197
*399 FILLER_0_21_204
*400 FILLER_0_21_208
*401 FILLER_0_21_254
*402 FILLER_0_21_258
*403 FILLER_0_21_274
*404 FILLER_0_21_278
*405 FILLER_0_21_28
*406 FILLER_0_21_282
*407 FILLER_0_21_346
*408 FILLER_0_21_348
*409 FILLER_0_21_60
*410 FILLER_0_21_68
*411 FILLER_0_21_72
*412 FILLER_0_21_88
*413 FILLER_0_21_96
*414 FILLER_0_22_113
*415 FILLER_0_22_121
*416 FILLER_0_22_222
*417 FILLER_0_22_226
*418 FILLER_0_22_233
*419 FILLER_0_22_241
*420 FILLER_0_22_247
*421 FILLER_0_22_28
*422 FILLER_0_22_311
*423 FILLER_0_22_317
*424 FILLER_0_22_32
*425 FILLER_0_22_321
*426 FILLER_0_22_34
*427 FILLER_0_22_37
*428 FILLER_0_22_69
*429 FILLER_0_22_73
*430 FILLER_0_22_75
*431 FILLER_0_23_121
*432 FILLER_0_23_129
*433 FILLER_0_23_133
*434 FILLER_0_23_135
*435 FILLER_0_23_142
*436 FILLER_0_23_156
*437 FILLER_0_23_2
*438 FILLER_0_23_262
*439 FILLER_0_23_278
*440 FILLER_0_23_282
*441 FILLER_0_23_346
*442 FILLER_0_23_348
*443 FILLER_0_23_66
*444 FILLER_0_23_72
*445 FILLER_0_23_80
*446 FILLER_0_24_101
*447 FILLER_0_24_107
*448 FILLER_0_24_117
*449 FILLER_0_24_125
*450 FILLER_0_24_129
*451 FILLER_0_24_131
*452 FILLER_0_24_140
*453 FILLER_0_24_177
*454 FILLER_0_24_184
*455 FILLER_0_24_191
*456 FILLER_0_24_210
*457 FILLER_0_24_218
*458 FILLER_0_24_234
*459 FILLER_0_24_238
*460 FILLER_0_24_240
*461 FILLER_0_24_247
*462 FILLER_0_24_28
*463 FILLER_0_24_311
*464 FILLER_0_24_317
*465 FILLER_0_24_32
*466 FILLER_0_24_321
*467 FILLER_0_24_34
*468 FILLER_0_24_37
*469 FILLER_0_25_104
*470 FILLER_0_25_108
*471 FILLER_0_25_110
*472 FILLER_0_25_142
*473 FILLER_0_25_155
*474 FILLER_0_25_167
*475 FILLER_0_25_190
*476 FILLER_0_25_194
*477 FILLER_0_25_2
*478 FILLER_0_25_201
*479 FILLER_0_25_209
*480 FILLER_0_25_253
*481 FILLER_0_25_257
*482 FILLER_0_25_273
*483 FILLER_0_25_277
*484 FILLER_0_25_279
*485 FILLER_0_25_282
*486 FILLER_0_25_314
*487 FILLER_0_25_322
*488 FILLER_0_25_66
*489 FILLER_0_25_72
*490 FILLER_0_26_101
*491 FILLER_0_26_107
*492 FILLER_0_26_111
*493 FILLER_0_26_126
*494 FILLER_0_26_142
*495 FILLER_0_26_150
*496 FILLER_0_26_154
*497 FILLER_0_26_163
*498 FILLER_0_26_171
*499 FILLER_0_26_177
*500 FILLER_0_26_185
*501 FILLER_0_26_187
*502 FILLER_0_26_2
*503 FILLER_0_26_217
*504 FILLER_0_26_221
*505 FILLER_0_26_233
*506 FILLER_0_26_241
*507 FILLER_0_26_247
*508 FILLER_0_26_311
*509 FILLER_0_26_317
*510 FILLER_0_26_321
*511 FILLER_0_26_34
*512 FILLER_0_26_37
*513 FILLER_0_27_117
*514 FILLER_0_27_125
*515 FILLER_0_27_137
*516 FILLER_0_27_139
*517 FILLER_0_27_142
*518 FILLER_0_27_146
*519 FILLER_0_27_176
*520 FILLER_0_27_192
*521 FILLER_0_27_200
*522 FILLER_0_27_212
*523 FILLER_0_27_276
*524 FILLER_0_27_28
*525 FILLER_0_27_282
*526 FILLER_0_27_346
*527 FILLER_0_27_348
*528 FILLER_0_27_60
*529 FILLER_0_27_68
*530 FILLER_0_27_72
*531 FILLER_0_28_101
*532 FILLER_0_28_107
*533 FILLER_0_28_109
*534 FILLER_0_28_144
*535 FILLER_0_28_154
*536 FILLER_0_28_170
*537 FILLER_0_28_174
*538 FILLER_0_28_189
*539 FILLER_0_28_197
*540 FILLER_0_28_199
*541 FILLER_0_28_2
*542 FILLER_0_28_229
*543 FILLER_0_28_233
*544 FILLER_0_28_241
*545 FILLER_0_28_247
*546 FILLER_0_28_311
*547 FILLER_0_28_317
*548 FILLER_0_28_34
*549 FILLER_0_28_37
*550 FILLER_0_29_136
*551 FILLER_0_29_142
*552 FILLER_0_29_148
*553 FILLER_0_29_156
*554 FILLER_0_29_160
*555 FILLER_0_29_162
*556 FILLER_0_29_197
*557 FILLER_0_29_2
*558 FILLER_0_29_201
*559 FILLER_0_29_209
*560 FILLER_0_29_216
*561 FILLER_0_29_282
*562 FILLER_0_29_346
*563 FILLER_0_29_348
*564 FILLER_0_29_66
*565 FILLER_0_29_72
*566 FILLER_0_2_101
*567 FILLER_0_2_107
*568 FILLER_0_2_171
*569 FILLER_0_2_177
*570 FILLER_0_2_2
*571 FILLER_0_2_241
*572 FILLER_0_2_247
*573 FILLER_0_2_311
*574 FILLER_0_2_317
*575 FILLER_0_2_34
*576 FILLER_0_2_37
*577 FILLER_0_30_101
*578 FILLER_0_30_107
*579 FILLER_0_30_123
*580 FILLER_0_30_165
*581 FILLER_0_30_173
*582 FILLER_0_30_2
*583 FILLER_0_30_206
*584 FILLER_0_30_210
*585 FILLER_0_30_242
*586 FILLER_0_30_244
*587 FILLER_0_30_247
*588 FILLER_0_30_311
*589 FILLER_0_30_317
*590 FILLER_0_30_333
*591 FILLER_0_30_34
*592 FILLER_0_30_341
*593 FILLER_0_30_37
*594 FILLER_0_31_136
*595 FILLER_0_31_142
*596 FILLER_0_31_174
*597 FILLER_0_31_190
*598 FILLER_0_31_199
*599 FILLER_0_31_2
*600 FILLER_0_31_207
*601 FILLER_0_31_209
*602 FILLER_0_31_212
*603 FILLER_0_31_276
*604 FILLER_0_31_282
*605 FILLER_0_31_346
*606 FILLER_0_31_348
*607 FILLER_0_31_66
*608 FILLER_0_31_72
*609 FILLER_0_32_101
*610 FILLER_0_32_107
*611 FILLER_0_32_171
*612 FILLER_0_32_177
*613 FILLER_0_32_2
*614 FILLER_0_32_241
*615 FILLER_0_32_247
*616 FILLER_0_32_311
*617 FILLER_0_32_317
*618 FILLER_0_32_34
*619 FILLER_0_32_37
*620 FILLER_0_33_136
*621 FILLER_0_33_142
*622 FILLER_0_33_2
*623 FILLER_0_33_206
*624 FILLER_0_33_212
*625 FILLER_0_33_276
*626 FILLER_0_33_282
*627 FILLER_0_33_346
*628 FILLER_0_33_348
*629 FILLER_0_33_66
*630 FILLER_0_33_72
*631 FILLER_0_34_101
*632 FILLER_0_34_107
*633 FILLER_0_34_171
*634 FILLER_0_34_177
*635 FILLER_0_34_2
*636 FILLER_0_34_241
*637 FILLER_0_34_247
*638 FILLER_0_34_311
*639 FILLER_0_34_317
*640 FILLER_0_34_34
*641 FILLER_0_34_37
*642 FILLER_0_35_136
*643 FILLER_0_35_142
*644 FILLER_0_35_2
*645 FILLER_0_35_206
*646 FILLER_0_35_212
*647 FILLER_0_35_276
*648 FILLER_0_35_282
*649 FILLER_0_35_346
*650 FILLER_0_35_348
*651 FILLER_0_35_66
*652 FILLER_0_35_72
*653 FILLER_0_36_101
*654 FILLER_0_36_107
*655 FILLER_0_36_171
*656 FILLER_0_36_177
*657 FILLER_0_36_2
*658 FILLER_0_36_241
*659 FILLER_0_36_247
*660 FILLER_0_36_311
*661 FILLER_0_36_317
*662 FILLER_0_36_34
*663 FILLER_0_36_37
*664 FILLER_0_37_136
*665 FILLER_0_37_142
*666 FILLER_0_37_2
*667 FILLER_0_37_206
*668 FILLER_0_37_212
*669 FILLER_0_37_276
*670 FILLER_0_37_282
*671 FILLER_0_37_346
*672 FILLER_0_37_348
*673 FILLER_0_37_66
*674 FILLER_0_37_72
*675 FILLER_0_38_101
*676 FILLER_0_38_107
*677 FILLER_0_38_171
*678 FILLER_0_38_177
*679 FILLER_0_38_2
*680 FILLER_0_38_241
*681 FILLER_0_38_247
*682 FILLER_0_38_311
*683 FILLER_0_38_317
*684 FILLER_0_38_34
*685 FILLER_0_38_37
*686 FILLER_0_39_136
*687 FILLER_0_39_142
*688 FILLER_0_39_2
*689 FILLER_0_39_206
*690 FILLER_0_39_212
*691 FILLER_0_39_276
*692 FILLER_0_39_282
*693 FILLER_0_39_346
*694 FILLER_0_39_348
*695 FILLER_0_39_66
*696 FILLER_0_39_72
*697 FILLER_0_3_136
*698 FILLER_0_3_142
*699 FILLER_0_3_2
*700 FILLER_0_3_206
*701 FILLER_0_3_212
*702 FILLER_0_3_276
*703 FILLER_0_3_282
*704 FILLER_0_3_346
*705 FILLER_0_3_348
*706 FILLER_0_3_66
*707 FILLER_0_3_72
*708 FILLER_0_40_101
*709 FILLER_0_40_107
*710 FILLER_0_40_171
*711 FILLER_0_40_177
*712 FILLER_0_40_2
*713 FILLER_0_40_241
*714 FILLER_0_40_247
*715 FILLER_0_40_311
*716 FILLER_0_40_317
*717 FILLER_0_40_34
*718 FILLER_0_40_37
*719 FILLER_0_41_136
*720 FILLER_0_41_142
*721 FILLER_0_41_2
*722 FILLER_0_41_206
*723 FILLER_0_41_212
*724 FILLER_0_41_276
*725 FILLER_0_41_282
*726 FILLER_0_41_346
*727 FILLER_0_41_348
*728 FILLER_0_41_66
*729 FILLER_0_41_72
*730 FILLER_0_42_101
*731 FILLER_0_42_107
*732 FILLER_0_42_171
*733 FILLER_0_42_177
*734 FILLER_0_42_2
*735 FILLER_0_42_241
*736 FILLER_0_42_247
*737 FILLER_0_42_311
*738 FILLER_0_42_317
*739 FILLER_0_42_333
*740 FILLER_0_42_34
*741 FILLER_0_42_341
*742 FILLER_0_42_37
*743 FILLER_0_43_136
*744 FILLER_0_43_142
*745 FILLER_0_43_150
*746 FILLER_0_43_154
*747 FILLER_0_43_156
*748 FILLER_0_43_183
*749 FILLER_0_43_199
*750 FILLER_0_43_2
*751 FILLER_0_43_207
*752 FILLER_0_43_209
*753 FILLER_0_43_212
*754 FILLER_0_43_220
*755 FILLER_0_43_222
*756 FILLER_0_43_249
*757 FILLER_0_43_265
*758 FILLER_0_43_273
*759 FILLER_0_43_277
*760 FILLER_0_43_279
*761 FILLER_0_43_282
*762 FILLER_0_43_346
*763 FILLER_0_43_348
*764 FILLER_0_43_66
*765 FILLER_0_43_72
*766 FILLER_0_44_104
*767 FILLER_0_44_138
*768 FILLER_0_44_169
*769 FILLER_0_44_172
*770 FILLER_0_44_176
*771 FILLER_0_44_2
*772 FILLER_0_44_232
*773 FILLER_0_44_236
*774 FILLER_0_44_240
*775 FILLER_0_44_274
*776 FILLER_0_44_308
*777 FILLER_0_44_342
*778 FILLER_0_44_346
*779 FILLER_0_44_348
*780 FILLER_0_44_36
*781 FILLER_0_44_70
*782 FILLER_0_4_101
*783 FILLER_0_4_107
*784 FILLER_0_4_171
*785 FILLER_0_4_177
*786 FILLER_0_4_2
*787 FILLER_0_4_241
*788 FILLER_0_4_247
*789 FILLER_0_4_311
*790 FILLER_0_4_317
*791 FILLER_0_4_34
*792 FILLER_0_4_37
*793 FILLER_0_5_136
*794 FILLER_0_5_142
*795 FILLER_0_5_2
*796 FILLER_0_5_206
*797 FILLER_0_5_212
*798 FILLER_0_5_276
*799 FILLER_0_5_282
*800 FILLER_0_5_346
*801 FILLER_0_5_348
*802 FILLER_0_5_66
*803 FILLER_0_5_72
*804 FILLER_0_6_101
*805 FILLER_0_6_107
*806 FILLER_0_6_171
*807 FILLER_0_6_177
*808 FILLER_0_6_2
*809 FILLER_0_6_241
*810 FILLER_0_6_247
*811 FILLER_0_6_311
*812 FILLER_0_6_317
*813 FILLER_0_6_34
*814 FILLER_0_6_37
*815 FILLER_0_7_136
*816 FILLER_0_7_142
*817 FILLER_0_7_2
*818 FILLER_0_7_206
*819 FILLER_0_7_212
*820 FILLER_0_7_276
*821 FILLER_0_7_282
*822 FILLER_0_7_346
*823 FILLER_0_7_348
*824 FILLER_0_7_66
*825 FILLER_0_7_72
*826 FILLER_0_8_101
*827 FILLER_0_8_107
*828 FILLER_0_8_171
*829 FILLER_0_8_177
*830 FILLER_0_8_2
*831 FILLER_0_8_241
*832 FILLER_0_8_247
*833 FILLER_0_8_311
*834 FILLER_0_8_317
*835 FILLER_0_8_34
*836 FILLER_0_8_37
*837 FILLER_0_9_136
*838 FILLER_0_9_142
*839 FILLER_0_9_2
*840 FILLER_0_9_206
*841 FILLER_0_9_212
*842 FILLER_0_9_276
*843 FILLER_0_9_282
*844 FILLER_0_9_346
*845 FILLER_0_9_348
*846 FILLER_0_9_66
*847 FILLER_0_9_72
*848 PHY_EDGE_ROW_0_Left_45
*849 PHY_EDGE_ROW_0_Right_0
*850 PHY_EDGE_ROW_10_Left_55
*851 PHY_EDGE_ROW_10_Right_10
*852 PHY_EDGE_ROW_11_Left_56
*853 PHY_EDGE_ROW_11_Right_11
*854 PHY_EDGE_ROW_12_Left_57
*855 PHY_EDGE_ROW_12_Right_12
*856 PHY_EDGE_ROW_13_Left_58
*857 PHY_EDGE_ROW_13_Right_13
*858 PHY_EDGE_ROW_14_Left_59
*859 PHY_EDGE_ROW_14_Right_14
*860 PHY_EDGE_ROW_15_Left_60
*861 PHY_EDGE_ROW_15_Right_15
*862 PHY_EDGE_ROW_16_Left_61
*863 PHY_EDGE_ROW_16_Right_16
*864 PHY_EDGE_ROW_17_Left_62
*865 PHY_EDGE_ROW_17_Right_17
*866 PHY_EDGE_ROW_18_Left_63
*867 PHY_EDGE_ROW_18_Right_18
*868 PHY_EDGE_ROW_19_Left_64
*869 PHY_EDGE_ROW_19_Right_19
*870 PHY_EDGE_ROW_1_Left_46
*871 PHY_EDGE_ROW_1_Right_1
*872 PHY_EDGE_ROW_20_Left_65
*873 PHY_EDGE_ROW_20_Right_20
*874 PHY_EDGE_ROW_21_Left_66
*875 PHY_EDGE_ROW_21_Right_21
*876 PHY_EDGE_ROW_22_Left_67
*877 PHY_EDGE_ROW_22_Right_22
*878 PHY_EDGE_ROW_23_Left_68
*879 PHY_EDGE_ROW_23_Right_23
*880 PHY_EDGE_ROW_24_Left_69
*881 PHY_EDGE_ROW_24_Right_24
*882 PHY_EDGE_ROW_25_Left_70
*883 PHY_EDGE_ROW_25_Right_25
*884 PHY_EDGE_ROW_26_Left_71
*885 PHY_EDGE_ROW_26_Right_26
*886 PHY_EDGE_ROW_27_Left_72
*887 PHY_EDGE_ROW_27_Right_27
*888 PHY_EDGE_ROW_28_Left_73
*889 PHY_EDGE_ROW_28_Right_28
*890 PHY_EDGE_ROW_29_Left_74
*891 PHY_EDGE_ROW_29_Right_29
*892 PHY_EDGE_ROW_2_Left_47
*893 PHY_EDGE_ROW_2_Right_2
*894 PHY_EDGE_ROW_30_Left_75
*895 PHY_EDGE_ROW_30_Right_30
*896 PHY_EDGE_ROW_31_Left_76
*897 PHY_EDGE_ROW_31_Right_31
*898 PHY_EDGE_ROW_32_Left_77
*899 PHY_EDGE_ROW_32_Right_32
*900 PHY_EDGE_ROW_33_Left_78
*901 PHY_EDGE_ROW_33_Right_33
*902 PHY_EDGE_ROW_34_Left_79
*903 PHY_EDGE_ROW_34_Right_34
*904 PHY_EDGE_ROW_35_Left_80
*905 PHY_EDGE_ROW_35_Right_35
*906 PHY_EDGE_ROW_36_Left_81
*907 PHY_EDGE_ROW_36_Right_36
*908 PHY_EDGE_ROW_37_Left_82
*909 PHY_EDGE_ROW_37_Right_37
*910 PHY_EDGE_ROW_38_Left_83
*911 PHY_EDGE_ROW_38_Right_38
*912 PHY_EDGE_ROW_39_Left_84
*913 PHY_EDGE_ROW_39_Right_39
*914 PHY_EDGE_ROW_3_Left_48
*915 PHY_EDGE_ROW_3_Right_3
*916 PHY_EDGE_ROW_40_Left_85
*917 PHY_EDGE_ROW_40_Right_40
*918 PHY_EDGE_ROW_41_Left_86
*919 PHY_EDGE_ROW_41_Right_41
*920 PHY_EDGE_ROW_42_Left_87
*921 PHY_EDGE_ROW_42_Right_42
*922 PHY_EDGE_ROW_43_Left_88
*923 PHY_EDGE_ROW_43_Right_43
*924 PHY_EDGE_ROW_44_Left_89
*925 PHY_EDGE_ROW_44_Right_44
*926 PHY_EDGE_ROW_4_Left_49
*927 PHY_EDGE_ROW_4_Right_4
*928 PHY_EDGE_ROW_5_Left_50
*929 PHY_EDGE_ROW_5_Right_5
*930 PHY_EDGE_ROW_6_Left_51
*931 PHY_EDGE_ROW_6_Right_6
*932 PHY_EDGE_ROW_7_Left_52
*933 PHY_EDGE_ROW_7_Right_7
*934 PHY_EDGE_ROW_8_Left_53
*935 PHY_EDGE_ROW_8_Right_8
*936 PHY_EDGE_ROW_9_Left_54
*937 PHY_EDGE_ROW_9_Right_9
*938 TAP_TAPCELL_ROW_0_90
*939 TAP_TAPCELL_ROW_0_91
*940 TAP_TAPCELL_ROW_0_92
*941 TAP_TAPCELL_ROW_0_93
*942 TAP_TAPCELL_ROW_0_94
*943 TAP_TAPCELL_ROW_0_95
*944 TAP_TAPCELL_ROW_0_96
*945 TAP_TAPCELL_ROW_0_97
*946 TAP_TAPCELL_ROW_0_98
*947 TAP_TAPCELL_ROW_0_99
*948 TAP_TAPCELL_ROW_10_140
*949 TAP_TAPCELL_ROW_10_141
*950 TAP_TAPCELL_ROW_10_142
*951 TAP_TAPCELL_ROW_10_143
*952 TAP_TAPCELL_ROW_10_144
*953 TAP_TAPCELL_ROW_11_145
*954 TAP_TAPCELL_ROW_11_146
*955 TAP_TAPCELL_ROW_11_147
*956 TAP_TAPCELL_ROW_11_148
*957 TAP_TAPCELL_ROW_12_149
*958 TAP_TAPCELL_ROW_12_150
*959 TAP_TAPCELL_ROW_12_151
*960 TAP_TAPCELL_ROW_12_152
*961 TAP_TAPCELL_ROW_12_153
*962 TAP_TAPCELL_ROW_13_154
*963 TAP_TAPCELL_ROW_13_155
*964 TAP_TAPCELL_ROW_13_156
*965 TAP_TAPCELL_ROW_13_157
*966 TAP_TAPCELL_ROW_14_158
*967 TAP_TAPCELL_ROW_14_159
*968 TAP_TAPCELL_ROW_14_160
*969 TAP_TAPCELL_ROW_14_161
*970 TAP_TAPCELL_ROW_14_162
*971 TAP_TAPCELL_ROW_15_163
*972 TAP_TAPCELL_ROW_15_164
*973 TAP_TAPCELL_ROW_15_165
*974 TAP_TAPCELL_ROW_15_166
*975 TAP_TAPCELL_ROW_16_167
*976 TAP_TAPCELL_ROW_16_168
*977 TAP_TAPCELL_ROW_16_169
*978 TAP_TAPCELL_ROW_16_170
*979 TAP_TAPCELL_ROW_16_171
*980 TAP_TAPCELL_ROW_17_172
*981 TAP_TAPCELL_ROW_17_173
*982 TAP_TAPCELL_ROW_17_174
*983 TAP_TAPCELL_ROW_17_175
*984 TAP_TAPCELL_ROW_18_176
*985 TAP_TAPCELL_ROW_18_177
*986 TAP_TAPCELL_ROW_18_178
*987 TAP_TAPCELL_ROW_18_179
*988 TAP_TAPCELL_ROW_18_180
*989 TAP_TAPCELL_ROW_19_181
*990 TAP_TAPCELL_ROW_19_182
*991 TAP_TAPCELL_ROW_19_183
*992 TAP_TAPCELL_ROW_19_184
*993 TAP_TAPCELL_ROW_1_100
*994 TAP_TAPCELL_ROW_1_101
*995 TAP_TAPCELL_ROW_1_102
*996 TAP_TAPCELL_ROW_1_103
*997 TAP_TAPCELL_ROW_20_185
*998 TAP_TAPCELL_ROW_20_186
*999 TAP_TAPCELL_ROW_20_187
*1000 TAP_TAPCELL_ROW_20_188
*1001 TAP_TAPCELL_ROW_20_189
*1002 TAP_TAPCELL_ROW_21_190
*1003 TAP_TAPCELL_ROW_21_191
*1004 TAP_TAPCELL_ROW_21_192
*1005 TAP_TAPCELL_ROW_21_193
*1006 TAP_TAPCELL_ROW_22_194
*1007 TAP_TAPCELL_ROW_22_195
*1008 TAP_TAPCELL_ROW_22_196
*1009 TAP_TAPCELL_ROW_22_197
*1010 TAP_TAPCELL_ROW_22_198
*1011 TAP_TAPCELL_ROW_23_199
*1012 TAP_TAPCELL_ROW_23_200
*1013 TAP_TAPCELL_ROW_23_201
*1014 TAP_TAPCELL_ROW_23_202
*1015 TAP_TAPCELL_ROW_24_203
*1016 TAP_TAPCELL_ROW_24_204
*1017 TAP_TAPCELL_ROW_24_205
*1018 TAP_TAPCELL_ROW_24_206
*1019 TAP_TAPCELL_ROW_24_207
*1020 TAP_TAPCELL_ROW_25_208
*1021 TAP_TAPCELL_ROW_25_209
*1022 TAP_TAPCELL_ROW_25_210
*1023 TAP_TAPCELL_ROW_25_211
*1024 TAP_TAPCELL_ROW_26_212
*1025 TAP_TAPCELL_ROW_26_213
*1026 TAP_TAPCELL_ROW_26_214
*1027 TAP_TAPCELL_ROW_26_215
*1028 TAP_TAPCELL_ROW_26_216
*1029 TAP_TAPCELL_ROW_27_217
*1030 TAP_TAPCELL_ROW_27_218
*1031 TAP_TAPCELL_ROW_27_219
*1032 TAP_TAPCELL_ROW_27_220
*1033 TAP_TAPCELL_ROW_28_221
*1034 TAP_TAPCELL_ROW_28_222
*1035 TAP_TAPCELL_ROW_28_223
*1036 TAP_TAPCELL_ROW_28_224
*1037 TAP_TAPCELL_ROW_28_225
*1038 TAP_TAPCELL_ROW_29_226
*1039 TAP_TAPCELL_ROW_29_227
*1040 TAP_TAPCELL_ROW_29_228
*1041 TAP_TAPCELL_ROW_29_229
*1042 TAP_TAPCELL_ROW_2_104
*1043 TAP_TAPCELL_ROW_2_105
*1044 TAP_TAPCELL_ROW_2_106
*1045 TAP_TAPCELL_ROW_2_107
*1046 TAP_TAPCELL_ROW_2_108
*1047 TAP_TAPCELL_ROW_30_230
*1048 TAP_TAPCELL_ROW_30_231
*1049 TAP_TAPCELL_ROW_30_232
*1050 TAP_TAPCELL_ROW_30_233
*1051 TAP_TAPCELL_ROW_30_234
*1052 TAP_TAPCELL_ROW_31_235
*1053 TAP_TAPCELL_ROW_31_236
*1054 TAP_TAPCELL_ROW_31_237
*1055 TAP_TAPCELL_ROW_31_238
*1056 TAP_TAPCELL_ROW_32_239
*1057 TAP_TAPCELL_ROW_32_240
*1058 TAP_TAPCELL_ROW_32_241
*1059 TAP_TAPCELL_ROW_32_242
*1060 TAP_TAPCELL_ROW_32_243
*1061 TAP_TAPCELL_ROW_33_244
*1062 TAP_TAPCELL_ROW_33_245
*1063 TAP_TAPCELL_ROW_33_246
*1064 TAP_TAPCELL_ROW_33_247
*1065 TAP_TAPCELL_ROW_34_248
*1066 TAP_TAPCELL_ROW_34_249
*1067 TAP_TAPCELL_ROW_34_250
*1068 TAP_TAPCELL_ROW_34_251
*1069 TAP_TAPCELL_ROW_34_252
*1070 TAP_TAPCELL_ROW_35_253
*1071 TAP_TAPCELL_ROW_35_254
*1072 TAP_TAPCELL_ROW_35_255
*1073 TAP_TAPCELL_ROW_35_256
*1074 TAP_TAPCELL_ROW_36_257
*1075 TAP_TAPCELL_ROW_36_258
*1076 TAP_TAPCELL_ROW_36_259
*1077 TAP_TAPCELL_ROW_36_260
*1078 TAP_TAPCELL_ROW_36_261
*1079 TAP_TAPCELL_ROW_37_262
*1080 TAP_TAPCELL_ROW_37_263
*1081 TAP_TAPCELL_ROW_37_264
*1082 TAP_TAPCELL_ROW_37_265
*1083 TAP_TAPCELL_ROW_38_266
*1084 TAP_TAPCELL_ROW_38_267
*1085 TAP_TAPCELL_ROW_38_268
*1086 TAP_TAPCELL_ROW_38_269
*1087 TAP_TAPCELL_ROW_38_270
*1088 TAP_TAPCELL_ROW_39_271
*1089 TAP_TAPCELL_ROW_39_272
*1090 TAP_TAPCELL_ROW_39_273
*1091 TAP_TAPCELL_ROW_39_274
*1092 TAP_TAPCELL_ROW_3_109
*1093 TAP_TAPCELL_ROW_3_110
*1094 TAP_TAPCELL_ROW_3_111
*1095 TAP_TAPCELL_ROW_3_112
*1096 TAP_TAPCELL_ROW_40_275
*1097 TAP_TAPCELL_ROW_40_276
*1098 TAP_TAPCELL_ROW_40_277
*1099 TAP_TAPCELL_ROW_40_278
*1100 TAP_TAPCELL_ROW_40_279
*1101 TAP_TAPCELL_ROW_41_280
*1102 TAP_TAPCELL_ROW_41_281
*1103 TAP_TAPCELL_ROW_41_282
*1104 TAP_TAPCELL_ROW_41_283
*1105 TAP_TAPCELL_ROW_42_284
*1106 TAP_TAPCELL_ROW_42_285
*1107 TAP_TAPCELL_ROW_42_286
*1108 TAP_TAPCELL_ROW_42_287
*1109 TAP_TAPCELL_ROW_42_288
*1110 TAP_TAPCELL_ROW_43_289
*1111 TAP_TAPCELL_ROW_43_290
*1112 TAP_TAPCELL_ROW_43_291
*1113 TAP_TAPCELL_ROW_43_292
*1114 TAP_TAPCELL_ROW_44_293
*1115 TAP_TAPCELL_ROW_44_294
*1116 TAP_TAPCELL_ROW_44_295
*1117 TAP_TAPCELL_ROW_44_296
*1118 TAP_TAPCELL_ROW_44_297
*1119 TAP_TAPCELL_ROW_44_298
*1120 TAP_TAPCELL_ROW_44_299
*1121 TAP_TAPCELL_ROW_44_300
*1122 TAP_TAPCELL_ROW_44_301
*1123 TAP_TAPCELL_ROW_44_302
*1124 TAP_TAPCELL_ROW_4_113
*1125 TAP_TAPCELL_ROW_4_114
*1126 TAP_TAPCELL_ROW_4_115
*1127 TAP_TAPCELL_ROW_4_116
*1128 TAP_TAPCELL_ROW_4_117
*1129 TAP_TAPCELL_ROW_5_118
*1130 TAP_TAPCELL_ROW_5_119
*1131 TAP_TAPCELL_ROW_5_120
*1132 TAP_TAPCELL_ROW_5_121
*1133 TAP_TAPCELL_ROW_6_122
*1134 TAP_TAPCELL_ROW_6_123
*1135 TAP_TAPCELL_ROW_6_124
*1136 TAP_TAPCELL_ROW_6_125
*1137 TAP_TAPCELL_ROW_6_126
*1138 TAP_TAPCELL_ROW_7_127
*1139 TAP_TAPCELL_ROW_7_128
*1140 TAP_TAPCELL_ROW_7_129
*1141 TAP_TAPCELL_ROW_7_130
*1142 TAP_TAPCELL_ROW_8_131
*1143 TAP_TAPCELL_ROW_8_132
*1144 TAP_TAPCELL_ROW_8_133
*1145 TAP_TAPCELL_ROW_8_134
*1146 TAP_TAPCELL_ROW_8_135
*1147 TAP_TAPCELL_ROW_9_136
*1148 TAP_TAPCELL_ROW_9_137
*1149 TAP_TAPCELL_ROW_9_138
*1150 TAP_TAPCELL_ROW_9_139
*1151 _091_
*1152 _092_
*1153 _093_
*1154 _094_
*1155 _095_
*1156 _096_
*1157 _097_
*1158 _098_
*1159 _099_
*1160 _100_
*1161 _101_
*1162 _102_
*1163 _103_
*1164 _104_
*1165 _105_
*1166 _106_
*1167 _107_
*1168 _108_
*1169 _109_
*1170 _110_
*1171 _111_
*1172 _112_
*1173 _113_
*1174 _114_
*1175 _115_
*1176 _116_
*1177 _117_
*1178 _118_
*1179 _119_
*1180 _120_
*1181 _121_
*1182 _122_
*1183 _123_
*1184 _124_
*1185 _125_
*1186 _126_
*1187 _127_
*1188 _128_
*1189 _129_
*1190 _130_
*1191 _131_
*1192 _132_
*1193 _133_
*1194 _134_
*1195 _135_
*1196 _136_
*1197 _137_
*1198 _138_
*1199 _139_
*1200 _140_
*1201 _141_
*1202 _142_
*1203 _143_
*1204 _144_
*1205 _145_
*1206 _146_
*1207 _147_
*1208 _148_
*1209 _149_
*1210 _150_
*1211 _151_
*1212 _152_
*1213 _153_
*1214 _154_
*1215 _155_
*1216 _156_
*1217 _157_
*1218 _158_
*1219 _159_
*1220 _160_
*1221 _161_
*1222 _162_
*1223 _163_
*1224 _164_
*1225 _165_
*1226 _166_
*1227 _167_
*1228 _168_
*1229 _169_
*1230 _170_
*1231 _171_
*1232 _172_
*1233 _173_
*1234 _174_
*1235 _175_
*1236 _176_
*1237 _177_
*1238 _178_
*1239 _179_
*1240 _180_
*1241 _181_
*1242 _182_
*1243 _183_
*1244 _184_
*1245 _185_
*1246 _186_
*1247 _187_
*1248 _188_
*1249 _189_
*1250 _190_
*1251 _191_
*1252 _192_
*1253 _193_
*1254 _194_
*1255 _195_
*1256 _196_
*1257 _197_
*1258 _198_
*1259 _199_
*1260 _200_
*1261 _201_
*1262 _202_
*1263 _203_
*1264 _204_
*1265 _205_
*1266 _206_
*1267 _211_
*1268 clkbuf_0_clk
*1269 clkbuf_1_0__f_clk
*1270 clkbuf_1_1__f_clk
*1271 ita36_23
*1272 ita36_24
*1273 ita36_25
*1274 ita36_26
*1275 output1
*1276 output10
*1277 output11
*1278 output12
*1279 output13
*1280 output14
*1281 output15
*1282 output16
*1283 output17
*1284 output18
*1285 output19
*1286 output2
*1287 output20
*1288 output21
*1289 output22
*1290 output3
*1291 output4
*1292 output5
*1293 output6
*1294 output7
*1295 output8
*1296 output9

*PORTS
clk I
segm[0] O
segm[10] O
segm[11] O
segm[12] O
segm[13] O
segm[1] O
segm[2] O
segm[3] O
segm[4] O
segm[5] O
segm[6] O
segm[7] O
segm[8] O
segm[9] O
sel[0] O
sel[10] O
sel[11] O
sel[1] O
sel[2] O
sel[3] O
sel[4] O
sel[5] O
sel[6] O
sel[7] O
sel[8] O
sel[9] O

*D_NET *1 0.0131166
*CONN
*P clk I
*I *1268:I I *D gf180mcu_fd_sc_mcu7t5v0__clkbuf_16
*I *161:I I *D gf180mcu_fd_sc_mcu7t5v0__antenna
*CAP
1 clk 0.00221367
2 *1268:I 5.81478e-05
3 *161:I 0
4 *1:13 0.00297207
5 *1:11 0.00512759
6 *1268:I *74:10 0
7 *1268:I *83:19 0.000364104
8 *1:13 *1152:I 0.000216413
9 *1:13 *1161:A1 0
10 *1:13 *1161:A2 0
11 *1:13 *1232:A1 0.000165422
12 *1:13 *1233:A1 0.000404375
13 *1:13 *1276:I 9.6017e-05
14 *1:13 *1288:I 0
15 *1:13 *74:10 0
16 *1:13 *83:8 0.000665871
17 *1:13 *83:19 0.000164116
18 *1:13 *90:14 0
19 *1:13 *122:75 0.00066881
*RES
1 clk *1:11 25.588 
2 *1:11 *1:13 27.768 
3 *1:13 *161:I 9 
4 *1:13 *1268:I 9.936 
*END

*D_NET *2 0.00181258
*CONN
*P segm[0] O
*I *1271:ZN O *D gf180mcu_fd_sc_mcu7t5v0__tiel
*CAP
1 segm[0] 0.00086455
2 *1271:ZN 0.00086455
3 segm[0] sel[7] 8.34832e-05
*RES
1 *1271:ZN segm[0] 11.832 
*END

*D_NET *3 0.000698543
*CONN
*P segm[10] O
*I *1275:Z O *D gf180mcu_fd_sc_mcu7t5v0__buf_8
*CAP
1 segm[10] 0.000314775
2 *1275:Z 0.000314775
3 segm[10] segm[6] 6.8994e-05
*RES
1 *1275:Z segm[10] 11.86 
*END

*D_NET *4 0.000758401
*CONN
*P segm[11] O
*I *1286:Z O *D gf180mcu_fd_sc_mcu7t5v0__buf_8
*CAP
1 segm[11] 0.000317684
2 *1286:Z 0.000317684
3 segm[11] segm[8] 6.0623e-05
4 segm[11] segm[9] 6.24106e-05
*RES
1 *1286:Z segm[11] 11.86 
*END

*D_NET *5 0.00260472
*CONN
*P segm[12] O
*I *1290:Z O *D gf180mcu_fd_sc_mcu7t5v0__buf_8
*CAP
1 segm[12] 0.00130236
2 *1290:Z 0.00130236
*RES
1 *1290:Z segm[12] 23.432 
*END

*D_NET *6 0.00104778
*CONN
*P segm[13] O
*I *1291:Z O *D gf180mcu_fd_sc_mcu7t5v0__buf_8
*CAP
1 segm[13] 0.000470587
2 *1291:Z 0.000470587
3 segm[13] segm[1] 0.000106609
*RES
1 *1291:Z segm[13] 12.9 
*END

*D_NET *7 0.000884746
*CONN
*P segm[1] O
*I *1292:Z O *D gf180mcu_fd_sc_mcu7t5v0__buf_8
*CAP
1 segm[1] 0.000354573
2 *1292:Z 0.000354573
3 segm[1] segm[4] 6.89904e-05
4 segm[13] segm[1] 0.000106609
*RES
1 *1292:Z segm[1] 12.276 
*END

*D_NET *8 0.000829258
*CONN
*P segm[2] O
*I *1272:ZN O *D gf180mcu_fd_sc_mcu7t5v0__tiel
*CAP
1 segm[2] 0.000414629
2 *1272:ZN 0.000414629
*RES
1 *1272:ZN segm[2] 12.068 
*END

*D_NET *9 0.00132986
*CONN
*P segm[3] O
*I *1273:ZN O *D gf180mcu_fd_sc_mcu7t5v0__tiel
*CAP
1 segm[3] 0.000664931
2 *1273:ZN 0.000664931
*RES
1 *1273:ZN segm[3] 9.856 
*END

*D_NET *10 0.00107081
*CONN
*P segm[4] O
*I *1293:Z O *D gf180mcu_fd_sc_mcu7t5v0__buf_8
*CAP
1 segm[4] 0.000500908
2 *1293:Z 0.000500908
3 segm[1] segm[4] 6.89904e-05
*RES
1 *1293:Z segm[4] 13.108 
*END

*D_NET *11 0.000829258
*CONN
*P segm[5] O
*I *1274:ZN O *D gf180mcu_fd_sc_mcu7t5v0__tiel
*CAP
1 segm[5] 0.000414629
2 *1274:ZN 0.000414629
*RES
1 *1274:ZN segm[5] 12.068 
*END

*D_NET *12 0.00053657
*CONN
*P segm[6] O
*I *1294:Z O *D gf180mcu_fd_sc_mcu7t5v0__buf_8
*CAP
1 segm[6] 0.000197781
2 *1294:Z 0.000197781
3 segm[6] sel[5] 7.20128e-05
4 segm[10] segm[6] 6.8994e-05
*RES
1 *1294:Z segm[6] 11.34 
*END

*D_NET *13 0.00152381
*CONN