*SPEF "ieee 1481-1999"
*DESIGN "ita39"
*DATE "11:11:11 Fri 11 11, 1111"
*VENDOR "OpenRCX"
*PROGRAM "Parallel Extraction"
*VERSION "1.0"
*DESIGN_FLOW "NAME_SCOPE LOCAL" "PIN_CAP NONE"
*DIVIDER /
*DELIMITER :
*BUS_DELIMITER []
*T_UNIT 1 NS
*C_UNIT 1 PF
*R_UNIT 1 OHM
*L_UNIT 1 HENRY

*NAME_MAP
*1 clk
*2 net25
*3 segm[10]
*4 segm[11]
*5 segm[12]
*6 segm[13]
*7 segm[1]
*8 segm[2]
*9 net26
*10 segm[4]
*11 segm[5]
*12 segm[6]
*13 segm[7]
*14 segm[8]
*15 segm[9]
*16 sel[0]
*17 sel[10]
*18 sel[11]
*19 sel[1]
*20 sel[2]
*21 sel[3]
*22 sel[4]
*23 sel[5]
*24 sel[6]
*25 sel[7]
*26 sel[8]
*27 sel[9]
*30 _000_
*31 _001_
*32 _002_
*33 _003_
*34 _004_
*35 _005_
*36 _006_
*37 _007_
*38 _008_
*39 _009_
*40 _010_
*41 _011_
*42 _012_
*43 _013_
*44 _014_
*45 _015_
*46 _016_
*47 _017_
*48 _018_
*49 _019_
*50 _020_
*51 _021_
*52 _022_
*53 _023_
*54 _024_
*55 _025_
*56 _026_
*57 _027_
*58 _028_
*59 _029_
*60 _030_
*61 _031_
*62 _032_
*63 _033_
*64 _034_
*65 _035_
*66 _036_
*67 _037_
*68 _038_
*69 _039_
*70 _040_
*71 _041_
*72 _042_
*73 _043_
*74 _044_
*75 _045_
*76 _046_
*77 _047_
*78 _048_
*79 _049_
*80 _050_
*81 _051_
*82 _052_
*83 _053_
*84 _054_
*85 _055_
*86 _056_
*87 _057_
*88 _058_
*89 _059_
*90 _060_
*91 _061_
*92 _062_
*93 _063_
*94 _064_
*95 _065_
*96 _066_
*97 _067_
*98 _068_
*99 _069_
*100 _070_
*101 _071_
*102 _072_
*103 _073_
*104 _074_
*105 _075_
*106 _076_
*107 _077_
*108 _078_
*109 _079_
*110 _080_
*111 _081_
*112 _082_
*113 _083_
*114 _084_
*115 _085_
*116 _086_
*117 _087_
*118 _088_
*119 _089_
*120 _090_
*121 _091_
*122 _092_
*123 _093_
*124 _094_
*125 _095_
*126 _096_
*127 _097_
*128 _098_
*129 _099_
*130 _100_
*131 _101_
*132 _102_
*133 _103_
*134 _104_
*135 _105_
*136 clknet_0_clk
*137 clknet_1_0__leaf_clk
*138 clknet_1_1__leaf_clk
*139 dut39\.count\[0\]
*140 dut39\.count\[1\]
*141 dut39\.count\[2\]
*142 dut39\.count\[3\]
*143 net1
*144 net10
*145 net11
*146 net12
*147 net13
*148 net14
*149 net15
*150 net16
*151 net17
*152 net18
*153 net19
*154 net2
*155 net20
*156 net21
*157 net22
*158 net23
*159 net24
*160 net3
*161 net4
*162 net5
*163 net6
*164 net7
*165 net8
*166 net9
*167 ANTENNA__212__CLK
*168 ANTENNA__213__CLK
*169 ANTENNA__214__CLK
*170 ANTENNA__215__CLK
*171 ANTENNA__216__CLK
*172 ANTENNA__217__CLK
*173 ANTENNA__218__CLK
*174 ANTENNA__219__CLK
*175 ANTENNA__220__CLK
*176 ANTENNA__221__CLK
*177 ANTENNA__222__CLK
*178 ANTENNA__223__CLK
*179 ANTENNA__224__CLK
*180 ANTENNA__225__CLK
*181 ANTENNA__226__CLK
*182 ANTENNA__227__CLK
*183 ANTENNA__228__CLK
*184 ANTENNA__229__CLK
*185 ANTENNA__230__CLK
*186 ANTENNA__231__CLK
*187 ANTENNA__232__CLK
*188 ANTENNA__233__CLK
*189 ANTENNA__234__CLK
*190 ANTENNA__235__CLK
*191 ANTENNA__236__CLK
*192 ANTENNA__237__CLK
*193 ANTENNA_clkbuf_0_clk_I
*194 FILLER_0_0_104
*195 FILLER_0_0_138
*196 FILLER_0_0_142
*197 FILLER_0_0_172
*198 FILLER_0_0_174
*199 FILLER_0_0_2
*200 FILLER_0_0_201
*201 FILLER_0_0_203
*202 FILLER_0_0_232
*203 FILLER_0_0_236
*204 FILLER_0_0_240
*205 FILLER_0_0_274
*206 FILLER_0_0_308
*207 FILLER_0_0_342
*208 FILLER_0_0_346
*209 FILLER_0_0_348
*210 FILLER_0_0_36
*211 FILLER_0_0_70
*212 FILLER_0_10_101
*213 FILLER_0_10_107
*214 FILLER_0_10_171
*215 FILLER_0_10_177
*216 FILLER_0_10_2
*217 FILLER_0_10_241
*218 FILLER_0_10_247
*219 FILLER_0_10_311
*220 FILLER_0_10_317
*221 FILLER_0_10_34
*222 FILLER_0_10_37
*223 FILLER_0_11_136
*224 FILLER_0_11_142
*225 FILLER_0_11_146
*226 FILLER_0_11_162
*227 FILLER_0_11_168
*228 FILLER_0_11_2
*229 FILLER_0_11_200
*230 FILLER_0_11_208
*231 FILLER_0_11_212
*232 FILLER_0_11_276
*233 FILLER_0_11_282
*234 FILLER_0_11_346
*235 FILLER_0_11_348
*236 FILLER_0_11_66
*237 FILLER_0_11_72
*238 FILLER_0_12_101
*239 FILLER_0_12_107
*240 FILLER_0_12_173
*241 FILLER_0_12_177
*242 FILLER_0_12_181
*243 FILLER_0_12_2
*244 FILLER_0_12_211
*245 FILLER_0_12_215
*246 FILLER_0_12_231
*247 FILLER_0_12_239
*248 FILLER_0_12_243
*249 FILLER_0_12_247
*250 FILLER_0_12_311
*251 FILLER_0_12_317
*252 FILLER_0_12_34
*253 FILLER_0_12_37
*254 FILLER_0_13_104
*255 FILLER_0_13_120
*256 FILLER_0_13_128
*257 FILLER_0_13_135
*258 FILLER_0_13_139
*259 FILLER_0_13_150
*260 FILLER_0_13_154
*261 FILLER_0_13_156
*262 FILLER_0_13_167
*263 FILLER_0_13_177
*264 FILLER_0_13_2
*265 FILLER_0_13_216
*266 FILLER_0_13_220
*267 FILLER_0_13_252
*268 FILLER_0_13_268
*269 FILLER_0_13_276
*270 FILLER_0_13_282
*271 FILLER_0_13_346
*272 FILLER_0_13_348
*273 FILLER_0_13_66
*274 FILLER_0_13_72
*275 FILLER_0_14_101
*276 FILLER_0_14_107
*277 FILLER_0_14_123
*278 FILLER_0_14_131
*279 FILLER_0_14_135
*280 FILLER_0_14_177
*281 FILLER_0_14_179
*282 FILLER_0_14_2
*283 FILLER_0_14_205
*284 FILLER_0_14_237
*285 FILLER_0_14_247
*286 FILLER_0_14_311
*287 FILLER_0_14_317
*288 FILLER_0_14_34
*289 FILLER_0_14_37
*290 FILLER_0_15_119
*291 FILLER_0_15_123
*292 FILLER_0_15_139
*293 FILLER_0_15_142
*294 FILLER_0_15_150
*295 FILLER_0_15_152
*296 FILLER_0_15_159
*297 FILLER_0_15_169
*298 FILLER_0_15_185
*299 FILLER_0_15_195
*300 FILLER_0_15_199
*301 FILLER_0_15_2
*302 FILLER_0_15_206
*303 FILLER_0_15_212
*304 FILLER_0_15_276
*305 FILLER_0_15_282
*306 FILLER_0_15_346
*307 FILLER_0_15_348
*308 FILLER_0_15_66
*309 FILLER_0_15_72
*310 FILLER_0_15_88
*311 FILLER_0_16_129
*312 FILLER_0_16_137
*313 FILLER_0_16_139
*314 FILLER_0_16_158
*315 FILLER_0_16_171
*316 FILLER_0_16_177
*317 FILLER_0_16_193
*318 FILLER_0_16_195
*319 FILLER_0_16_2
*320 FILLER_0_16_227
*321 FILLER_0_16_243
*322 FILLER_0_16_247
*323 FILLER_0_16_311
*324 FILLER_0_16_317
*325 FILLER_0_16_34
*326 FILLER_0_16_37
*327 FILLER_0_16_69
*328 FILLER_0_16_85
*329 FILLER_0_16_93
*330 FILLER_0_16_97
*331 FILLER_0_17_109
*332 FILLER_0_17_119
*333 FILLER_0_17_123
*334 FILLER_0_17_136
*335 FILLER_0_17_142
*336 FILLER_0_17_2
*337 FILLER_0_17_207
*338 FILLER_0_17_209
*339 FILLER_0_17_212
*340 FILLER_0_17_228
*341 FILLER_0_17_240
*342 FILLER_0_17_272
*343 FILLER_0_17_282
*344 FILLER_0_17_346
*345 FILLER_0_17_348
*346 FILLER_0_17_66
*347 FILLER_0_17_72
*348 FILLER_0_18_101
*349 FILLER_0_18_107
*350 FILLER_0_18_129
*351 FILLER_0_18_131
*352 FILLER_0_18_158
*353 FILLER_0_18_160
*354 FILLER_0_18_167
*355 FILLER_0_18_177
*356 FILLER_0_18_2
*357 FILLER_0_18_205
*358 FILLER_0_18_213
*359 FILLER_0_18_247
*360 FILLER_0_18_311
*361 FILLER_0_18_317
*362 FILLER_0_18_34
*363 FILLER_0_18_37
*364 FILLER_0_19_104
*365 FILLER_0_19_108
*366 FILLER_0_19_110
*367 FILLER_0_19_156
*368 FILLER_0_19_168
*369 FILLER_0_19_2
*370 FILLER_0_19_201
*371 FILLER_0_19_209
*372 FILLER_0_19_212
*373 FILLER_0_19_216
*374 FILLER_0_19_248
*375 FILLER_0_19_282
*376 FILLER_0_19_314
*377 FILLER_0_19_322
*378 FILLER_0_19_66
*379 FILLER_0_19_72
*380 FILLER_0_1_136
*381 FILLER_0_1_142
*382 FILLER_0_1_158
*383 FILLER_0_1_166
*384 FILLER_0_1_168
*385 FILLER_0_1_195
*386 FILLER_0_1_2
*387 FILLER_0_1_203
*388 FILLER_0_1_207
*389 FILLER_0_1_209
*390 FILLER_0_1_238
*391 FILLER_0_1_270
*392 FILLER_0_1_278
*393 FILLER_0_1_282
*394 FILLER_0_1_346
*395 FILLER_0_1_348
*396 FILLER_0_1_66
*397 FILLER_0_1_72
*398 FILLER_0_20_107
*399 FILLER_0_20_111
*400 FILLER_0_20_119
*401 FILLER_0_20_123
*402 FILLER_0_20_152
*403 FILLER_0_20_154
*404 FILLER_0_20_171
*405 FILLER_0_20_177
*406 FILLER_0_20_2
*407 FILLER_0_20_217
*408 FILLER_0_20_243
*409 FILLER_0_20_247
*410 FILLER_0_20_311
*411 FILLER_0_20_317
*412 FILLER_0_20_321
*413 FILLER_0_20_34
*414 FILLER_0_20_37
*415 FILLER_0_20_69
*416 FILLER_0_20_73
*417 FILLER_0_20_75
*418 FILLER_0_21_104
*419 FILLER_0_21_117
*420 FILLER_0_21_125
*421 FILLER_0_21_127
*422 FILLER_0_21_134
*423 FILLER_0_21_138
*424 FILLER_0_21_142
*425 FILLER_0_21_158
*426 FILLER_0_21_184
*427 FILLER_0_21_196
*428 FILLER_0_21_204
*429 FILLER_0_21_208
*430 FILLER_0_21_212
*431 FILLER_0_21_276
*432 FILLER_0_21_28
*433 FILLER_0_21_282
*434 FILLER_0_21_346
*435 FILLER_0_21_348
*436 FILLER_0_21_60
*437 FILLER_0_21_68
*438 FILLER_0_21_72
*439 FILLER_0_22_117
*440 FILLER_0_22_125
*441 FILLER_0_22_129
*442 FILLER_0_22_146
*443 FILLER_0_22_154
*444 FILLER_0_22_170
*445 FILLER_0_22_174
*446 FILLER_0_22_177
*447 FILLER_0_22_181
*448 FILLER_0_22_194
*449 FILLER_0_22_2
*450 FILLER_0_22_210
*451 FILLER_0_22_212
*452 FILLER_0_22_219
*453 FILLER_0_22_226
*454 FILLER_0_22_228
*455 FILLER_0_22_234
*456 FILLER_0_22_242
*457 FILLER_0_22_244
*458 FILLER_0_22_247
*459 FILLER_0_22_311
*460 FILLER_0_22_317
*461 FILLER_0_22_34
*462 FILLER_0_22_37
*463 FILLER_0_22_69
*464 FILLER_0_22_73
*465 FILLER_0_22_75
*466 FILLER_0_23_104
*467 FILLER_0_23_113
*468 FILLER_0_23_121
*469 FILLER_0_23_148
*470 FILLER_0_23_202
*471 FILLER_0_23_212
*472 FILLER_0_23_245
*473 FILLER_0_23_277
*474 FILLER_0_23_279
*475 FILLER_0_23_28
*476 FILLER_0_23_282
*477 FILLER_0_23_346
*478 FILLER_0_23_348
*479 FILLER_0_23_60
*480 FILLER_0_23_68
*481 FILLER_0_23_72
*482 FILLER_0_24_101
*483 FILLER_0_24_107
*484 FILLER_0_24_115
*485 FILLER_0_24_125
*486 FILLER_0_24_149
*487 FILLER_0_24_157
*488 FILLER_0_24_164
*489 FILLER_0_24_171
*490 FILLER_0_24_189
*491 FILLER_0_24_191
*492 FILLER_0_24_196
*493 FILLER_0_24_2
*494 FILLER_0_24_212
*495 FILLER_0_24_220
*496 FILLER_0_24_222
*497 FILLER_0_24_228
*498 FILLER_0_24_235
*499 FILLER_0_24_243
*500 FILLER_0_24_247
*501 FILLER_0_24_311
*502 FILLER_0_24_317
*503 FILLER_0_24_321
*504 FILLER_0_24_34
*505 FILLER_0_24_37
*506 FILLER_0_25_117
*507 FILLER_0_25_121
*508 FILLER_0_25_137
*509 FILLER_0_25_139
*510 FILLER_0_25_142
*511 FILLER_0_25_149
*512 FILLER_0_25_153
*513 FILLER_0_25_170
*514 FILLER_0_25_2
*515 FILLER_0_25_203
*516 FILLER_0_25_207
*517 FILLER_0_25_209
*518 FILLER_0_25_212
*519 FILLER_0_25_214
*520 FILLER_0_25_246
*521 FILLER_0_25_278
*522 FILLER_0_25_282
*523 FILLER_0_25_314
*524 FILLER_0_25_322
*525 FILLER_0_25_66
*526 FILLER_0_25_72
*527 FILLER_0_26_101
*528 FILLER_0_26_107
*529 FILLER_0_26_115
*530 FILLER_0_26_119
*531 FILLER_0_26_130
*532 FILLER_0_26_134
*533 FILLER_0_26_146
*534 FILLER_0_26_162
*535 FILLER_0_26_171
*536 FILLER_0_26_2
*537 FILLER_0_26_211
*538 FILLER_0_26_215
*539 FILLER_0_26_231
*540 FILLER_0_26_239
*541 FILLER_0_26_243
*542 FILLER_0_26_247
*543 FILLER_0_26_311
*544 FILLER_0_26_317
*545 FILLER_0_26_321
*546 FILLER_0_26_34
*547 FILLER_0_26_37
*548 FILLER_0_27_100
*549 FILLER_0_27_138
*550 FILLER_0_27_142
*551 FILLER_0_27_146
*552 FILLER_0_27_2
*553 FILLER_0_27_205
*554 FILLER_0_27_209
*555 FILLER_0_27_226
*556 FILLER_0_27_258
*557 FILLER_0_27_274
*558 FILLER_0_27_278
*559 FILLER_0_27_282
*560 FILLER_0_27_314
*561 FILLER_0_27_322
*562 FILLER_0_27_66
*563 FILLER_0_27_72
*564 FILLER_0_27_88
*565 FILLER_0_27_96
*566 FILLER_0_28_101
*567 FILLER_0_28_107
*568 FILLER_0_28_127
*569 FILLER_0_28_136
*570 FILLER_0_28_140
*571 FILLER_0_28_142
*572 FILLER_0_28_172
*573 FILLER_0_28_174
*574 FILLER_0_28_177
*575 FILLER_0_28_179
*576 FILLER_0_28_190
*577 FILLER_0_28_192
*578 FILLER_0_28_222
*579 FILLER_0_28_238
*580 FILLER_0_28_242
*581 FILLER_0_28_244
*582 FILLER_0_28_247
*583 FILLER_0_28_28
*584 FILLER_0_28_311
*585 FILLER_0_28_317
*586 FILLER_0_28_32
*587 FILLER_0_28_34
*588 FILLER_0_28_37
*589 FILLER_0_29_115
*590 FILLER_0_29_119
*591 FILLER_0_29_127
*592 FILLER_0_29_131
*593 FILLER_0_29_133
*594 FILLER_0_29_139
*595 FILLER_0_29_142
*596 FILLER_0_29_158
*597 FILLER_0_29_166
*598 FILLER_0_29_170
*599 FILLER_0_29_174
*600 FILLER_0_29_178
*601 FILLER_0_29_180
*602 FILLER_0_29_193
*603 FILLER_0_29_195
*604 FILLER_0_29_204
*605 FILLER_0_29_208
*606 FILLER_0_29_212
*607 FILLER_0_29_276
*608 FILLER_0_29_28
*609 FILLER_0_29_282
*610 FILLER_0_29_346
*611 FILLER_0_29_348
*612 FILLER_0_29_60
*613 FILLER_0_29_68
*614 FILLER_0_29_72
*615 FILLER_0_29_80
*616 FILLER_0_29_84
*617 FILLER_0_2_101
*618 FILLER_0_2_107
*619 FILLER_0_2_171
*620 FILLER_0_2_177
*621 FILLER_0_2_2
*622 FILLER_0_2_209
*623 FILLER_0_2_237
*624 FILLER_0_2_247
*625 FILLER_0_2_311
*626 FILLER_0_2_317
*627 FILLER_0_2_34
*628 FILLER_0_2_37
*629 FILLER_0_30_101
*630 FILLER_0_30_107
*631 FILLER_0_30_115
*632 FILLER_0_30_119
*633 FILLER_0_30_149
*634 FILLER_0_30_153
*635 FILLER_0_30_169
*636 FILLER_0_30_173
*637 FILLER_0_30_186
*638 FILLER_0_30_188
*639 FILLER_0_30_2
*640 FILLER_0_30_220
*641 FILLER_0_30_236
*642 FILLER_0_30_244
*643 FILLER_0_30_247
*644 FILLER_0_30_311
*645 FILLER_0_30_317
*646 FILLER_0_30_34
*647 FILLER_0_30_37
*648 FILLER_0_31_104
*649 FILLER_0_31_120
*650 FILLER_0_31_128
*651 FILLER_0_31_132
*652 FILLER_0_31_134
*653 FILLER_0_31_142
*654 FILLER_0_31_149
*655 FILLER_0_31_156
*656 FILLER_0_31_160
*657 FILLER_0_31_196
*658 FILLER_0_31_198
*659 FILLER_0_31_2
*660 FILLER_0_31_209
*661 FILLER_0_31_212
*662 FILLER_0_31_276
*663 FILLER_0_31_282
*664 FILLER_0_31_346
*665 FILLER_0_31_348
*666 FILLER_0_31_66
*667 FILLER_0_31_72
*668 FILLER_0_32_101
*669 FILLER_0_32_107
*670 FILLER_0_32_123
*671 FILLER_0_32_131
*672 FILLER_0_32_161
*673 FILLER_0_32_165
*674 FILLER_0_32_173
*675 FILLER_0_32_181
*676 FILLER_0_32_189
*677 FILLER_0_32_192
*678 FILLER_0_32_2
*679 FILLER_0_32_224
*680 FILLER_0_32_240
*681 FILLER_0_32_244
*682 FILLER_0_32_247
*683 FILLER_0_32_311
*684 FILLER_0_32_317
*685 FILLER_0_32_34
*686 FILLER_0_32_37
*687 FILLER_0_33_136
*688 FILLER_0_33_142
*689 FILLER_0_33_2
*690 FILLER_0_33_206
*691 FILLER_0_33_212
*692 FILLER_0_33_276
*693 FILLER_0_33_282
*694 FILLER_0_33_346
*695 FILLER_0_33_348
*696 FILLER_0_33_66
*697 FILLER_0_33_72
*698 FILLER_0_34_101
*699 FILLER_0_34_107
*700 FILLER_0_34_171
*701 FILLER_0_34_177
*702 FILLER_0_34_2
*703 FILLER_0_34_241
*704 FILLER_0_34_247
*705 FILLER_0_34_311
*706 FILLER_0_34_317
*707 FILLER_0_34_34
*708 FILLER_0_34_37
*709 FILLER_0_35_136
*710 FILLER_0_35_142
*711 FILLER_0_35_2
*712 FILLER_0_35_206
*713 FILLER_0_35_212
*714 FILLER_0_35_276
*715 FILLER_0_35_282
*716 FILLER_0_35_346
*717 FILLER_0_35_348
*718 FILLER_0_35_66
*719 FILLER_0_35_72
*720 FILLER_0_36_101
*721 FILLER_0_36_107
*722 FILLER_0_36_171
*723 FILLER_0_36_177
*724 FILLER_0_36_2
*725 FILLER_0_36_241
*726 FILLER_0_36_247
*727 FILLER_0_36_311
*728 FILLER_0_36_317
*729 FILLER_0_36_34
*730 FILLER_0_36_37
*731 FILLER_0_37_136
*732 FILLER_0_37_142
*733 FILLER_0_37_2
*734 FILLER_0_37_206
*735 FILLER_0_37_212
*736 FILLER_0_37_276
*737 FILLER_0_37_282
*738 FILLER_0_37_346
*739 FILLER_0_37_348
*740 FILLER_0_37_66
*741 FILLER_0_37_72
*742 FILLER_0_38_101
*743 FILLER_0_38_107
*744 FILLER_0_38_171
*745 FILLER_0_38_177
*746 FILLER_0_38_2
*747 FILLER_0_38_241
*748 FILLER_0_38_247
*749 FILLER_0_38_311
*750 FILLER_0_38_317
*751 FILLER_0_38_34
*752 FILLER_0_38_37
*753 FILLER_0_39_136
*754 FILLER_0_39_142
*755 FILLER_0_39_2
*756 FILLER_0_39_206
*757 FILLER_0_39_212
*758 FILLER_0_39_276
*759 FILLER_0_39_282
*760 FILLER_0_39_346
*761 FILLER_0_39_348
*762 FILLER_0_39_66
*763 FILLER_0_39_72
*764 FILLER_0_3_136
*765 FILLER_0_3_142
*766 FILLER_0_3_2
*767 FILLER_0_3_206
*768 FILLER_0_3_212
*769 FILLER_0_3_276
*770 FILLER_0_3_282
*771 FILLER_0_3_346
*772 FILLER_0_3_348
*773 FILLER_0_3_66
*774 FILLER_0_3_72
*775 FILLER_0_40_101
*776 FILLER_0_40_107
*777 FILLER_0_40_171
*778 FILLER_0_40_177
*779 FILLER_0_40_2
*780 FILLER_0_40_241
*781 FILLER_0_40_247
*782 FILLER_0_40_311
*783 FILLER_0_40_317
*784 FILLER_0_40_34
*785 FILLER_0_40_37
*786 FILLER_0_41_136
*787 FILLER_0_41_142
*788 FILLER_0_41_2
*789 FILLER_0_41_206
*790 FILLER_0_41_212
*791 FILLER_0_41_276
*792 FILLER_0_41_282
*793 FILLER_0_41_346
*794 FILLER_0_41_348
*795 FILLER_0_41_66
*796 FILLER_0_41_72
*797 FILLER_0_42_101
*798 FILLER_0_42_107
*799 FILLER_0_42_171
*800 FILLER_0_42_203
*801 FILLER_0_42_215
*802 FILLER_0_42_22
*803 FILLER_0_42_243
*804 FILLER_0_42_247
*805 FILLER_0_42_30
*806 FILLER_0_42_311
*807 FILLER_0_42_317
*808 FILLER_0_42_34
*809 FILLER_0_42_37
*810 FILLER_0_42_6
*811 FILLER_0_43_136
*812 FILLER_0_43_142
*813 FILLER_0_43_150
*814 FILLER_0_43_154
*815 FILLER_0_43_2
*816 FILLER_0_43_207
*817 FILLER_0_43_209
*818 FILLER_0_43_238
*819 FILLER_0_43_270
*820 FILLER_0_43_278
*821 FILLER_0_43_282
*822 FILLER_0_43_346
*823 FILLER_0_43_348
*824 FILLER_0_43_66
*825 FILLER_0_43_72
*826 FILLER_0_44_104
*827 FILLER_0_44_138
*828 FILLER_0_44_142
*829 FILLER_0_44_172
*830 FILLER_0_44_176
*831 FILLER_0_44_2
*832 FILLER_0_44_232
*833 FILLER_0_44_236
*834 FILLER_0_44_240
*835 FILLER_0_44_274
*836 FILLER_0_44_308
*837 FILLER_0_44_342
*838 FILLER_0_44_346
*839 FILLER_0_44_348
*840 FILLER_0_44_36
*841 FILLER_0_44_70
*842 FILLER_0_4_101
*843 FILLER_0_4_107
*844 FILLER_0_4_171
*845 FILLER_0_4_177
*846 FILLER_0_4_2
*847 FILLER_0_4_241
*848 FILLER_0_4_247
*849 FILLER_0_4_311
*850 FILLER_0_4_317
*851 FILLER_0_4_34
*852 FILLER_0_4_37
*853 FILLER_0_5_136
*854 FILLER_0_5_142
*855 FILLER_0_5_2
*856 FILLER_0_5_206
*857 FILLER_0_5_212
*858 FILLER_0_5_276
*859 FILLER_0_5_282
*860 FILLER_0_5_346
*861 FILLER_0_5_348
*862 FILLER_0_5_66
*863 FILLER_0_5_72
*864 FILLER_0_6_101
*865 FILLER_0_6_107
*866 FILLER_0_6_171
*867 FILLER_0_6_177
*868 FILLER_0_6_2
*869 FILLER_0_6_241
*870 FILLER_0_6_247
*871 FILLER_0_6_311
*872 FILLER_0_6_317
*873 FILLER_0_6_34
*874 FILLER_0_6_37
*875 FILLER_0_7_136
*876 FILLER_0_7_142
*877 FILLER_0_7_2
*878 FILLER_0_7_206
*879 FILLER_0_7_212
*880 FILLER_0_7_276
*881 FILLER_0_7_282
*882 FILLER_0_7_346
*883 FILLER_0_7_348
*884 FILLER_0_7_66
*885 FILLER_0_7_72
*886 FILLER_0_8_101
*887 FILLER_0_8_107
*888 FILLER_0_8_171
*889 FILLER_0_8_177
*890 FILLER_0_8_2
*891 FILLER_0_8_241
*892 FILLER_0_8_247
*893 FILLER_0_8_311
*894 FILLER_0_8_317
*895 FILLER_0_8_34
*896 FILLER_0_8_37
*897 FILLER_0_9_136
*898 FILLER_0_9_142
*899 FILLER_0_9_2
*900 FILLER_0_9_206
*901 FILLER_0_9_212
*902 FILLER_0_9_276
*903 FILLER_0_9_282
*904 FILLER_0_9_346
*905 FILLER_0_9_348
*906 FILLER_0_9_66
*907 FILLER_0_9_72
*908 PHY_EDGE_ROW_0_Left_45
*909 PHY_EDGE_ROW_0_Right_0
*910 PHY_EDGE_ROW_10_Left_55
*911 PHY_EDGE_ROW_10_Right_10
*912 PHY_EDGE_ROW_11_Left_56
*913 PHY_EDGE_ROW_11_Right_11
*914 PHY_EDGE_ROW_12_Left_57
*915 PHY_EDGE_ROW_12_Right_12
*916 PHY_EDGE_ROW_13_Left_58
*917 PHY_EDGE_ROW_13_Right_13
*918 PHY_EDGE_ROW_14_Left_59
*919 PHY_EDGE_ROW_14_Right_14
*920 PHY_EDGE_ROW_15_Left_60
*921 PHY_EDGE_ROW_15_Right_15
*922 PHY_EDGE_ROW_16_Left_61
*923 PHY_EDGE_ROW_16_Right_16
*924 PHY_EDGE_ROW_17_Left_62
*925 PHY_EDGE_ROW_17_Right_17
*926 PHY_EDGE_ROW_18_Left_63
*927 PHY_EDGE_ROW_18_Right_18
*928 PHY_EDGE_ROW_19_Left_64
*929 PHY_EDGE_ROW_19_Right_19
*930 PHY_EDGE_ROW_1_Left_46
*931 PHY_EDGE_ROW_1_Right_1
*932 PHY_EDGE_ROW_20_Left_65
*933 PHY_EDGE_ROW_20_Right_20
*934 PHY_EDGE_ROW_21_Left_66
*935 PHY_EDGE_ROW_21_Right_21
*936 PHY_EDGE_ROW_22_Left_67
*937 PHY_EDGE_ROW_22_Right_22
*938 PHY_EDGE_ROW_23_Left_68
*939 PHY_EDGE_ROW_23_Right_23
*940 PHY_EDGE_ROW_24_Left_69
*941 PHY_EDGE_ROW_24_Right_24
*942 PHY_EDGE_ROW_25_Left_70
*943 PHY_EDGE_ROW_25_Right_25
*944 PHY_EDGE_ROW_26_Left_71
*945 PHY_EDGE_ROW_26_Right_26
*946 PHY_EDGE_ROW_27_Left_72
*947 PHY_EDGE_ROW_27_Right_27
*948 PHY_EDGE_ROW_28_Left_73
*949 PHY_EDGE_ROW_28_Right_28
*950 PHY_EDGE_ROW_29_Left_74
*951 PHY_EDGE_ROW_29_Right_29
*952 PHY_EDGE_ROW_2_Left_47
*953 PHY_EDGE_ROW_2_Right_2
*954 PHY_EDGE_ROW_30_Left_75
*955 PHY_EDGE_ROW_30_Right_30
*956 PHY_EDGE_ROW_31_Left_76
*957 PHY_EDGE_ROW_31_Right_31
*958 PHY_EDGE_ROW_32_Left_77
*959 PHY_EDGE_ROW_32_Right_32
*960 PHY_EDGE_ROW_33_Left_78
*961 PHY_EDGE_ROW_33_Right_33
*962 PHY_EDGE_ROW_34_Left_79
*963 PHY_EDGE_ROW_34_Right_34
*964 PHY_EDGE_ROW_35_Left_80
*965 PHY_EDGE_ROW_35_Right_35
*966 PHY_EDGE_ROW_36_Left_81
*967 PHY_EDGE_ROW_36_Right_36
*968 PHY_EDGE_ROW_37_Left_82
*969 PHY_EDGE_ROW_37_Right_37
*970 PHY_EDGE_ROW_38_Left_83
*971 PHY_EDGE_ROW_38_Right_38
*972 PHY_EDGE_ROW_39_Left_84
*973 PHY_EDGE_ROW_39_Right_39
*974 PHY_EDGE_ROW_3_Left_48
*975 PHY_EDGE_ROW_3_Right_3
*976 PHY_EDGE_ROW_40_Left_85
*977 PHY_EDGE_ROW_40_Right_40
*978 PHY_EDGE_ROW_41_Left_86
*979 PHY_EDGE_ROW_41_Right_41
*980 PHY_EDGE_ROW_42_Left_87
*981 PHY_EDGE_ROW_42_Right_42
*982 PHY_EDGE_ROW_43_Left_88
*983 PHY_EDGE_ROW_43_Right_43
*984 PHY_EDGE_ROW_44_Left_89
*985 PHY_EDGE_ROW_44_Right_44
*986 PHY_EDGE_ROW_4_Left_49
*987 PHY_EDGE_ROW_4_Right_4
*988 PHY_EDGE_ROW_5_Left_50
*989 PHY_EDGE_ROW_5_Right_5
*990 PHY_EDGE_ROW_6_Left_51
*991 PHY_EDGE_ROW_6_Right_6
*992 PHY_EDGE_ROW_7_Left_52
*993 PHY_EDGE_ROW_7_Right_7
*994 PHY_EDGE_ROW_8_Left_53
*995 PHY_EDGE_ROW_8_Right_8
*996 PHY_EDGE_ROW_9_Left_54
*997 PHY_EDGE_ROW_9_Right_9
*998 TAP_TAPCELL_ROW_0_90
*999 TAP_TAPCELL_ROW_0_91
*1000 TAP_TAPCELL_ROW_0_92
*1001 TAP_TAPCELL_ROW_0_93
*1002 TAP_TAPCELL_ROW_0_94
*1003 TAP_TAPCELL_ROW_0_95
*1004 TAP_TAPCELL_ROW_0_96
*1005 TAP_TAPCELL_ROW_0_97
*1006 TAP_TAPCELL_ROW_0_98
*1007 TAP_TAPCELL_ROW_0_99
*1008 TAP_TAPCELL_ROW_10_140
*1009 TAP_TAPCELL_ROW_10_141
*1010 TAP_TAPCELL_ROW_10_142
*1011 TAP_TAPCELL_ROW_10_143
*1012 TAP_TAPCELL_ROW_10_144
*1013 TAP_TAPCELL_ROW_11_145
*1014 TAP_TAPCELL_ROW_11_146
*1015 TAP_TAPCELL_ROW_11_147
*1016 TAP_TAPCELL_ROW_11_148
*1017 TAP_TAPCELL_ROW_12_149
*1018 TAP_TAPCELL_ROW_12_150
*1019 TAP_TAPCELL_ROW_12_151
*1020 TAP_TAPCELL_ROW_12_152
*1021 TAP_TAPCELL_ROW_12_153
*1022 TAP_TAPCELL_ROW_13_154
*1023 TAP_TAPCELL_ROW_13_155
*1024 TAP_TAPCELL_ROW_13_156
*1025 TAP_TAPCELL_ROW_13_157
*1026 TAP_TAPCELL_ROW_14_158
*1027 TAP_TAPCELL_ROW_14_159
*1028 TAP_TAPCELL_ROW_14_160
*1029 TAP_TAPCELL_ROW_14_161
*1030 TAP_TAPCELL_ROW_14_162
*1031 TAP_TAPCELL_ROW_15_163
*1032 TAP_TAPCELL_ROW_15_164
*1033 TAP_TAPCELL_ROW_15_165
*1034 TAP_TAPCELL_ROW_15_166
*1035 TAP_TAPCELL_ROW_16_167
*1036 TAP_TAPCELL_ROW_16_168
*1037 TAP_TAPCELL_ROW_16_169
*1038 TAP_TAPCELL_ROW_16_170
*1039 TAP_TAPCELL_ROW_16_171
*1040 TAP_TAPCELL_ROW_17_172
*1041 TAP_TAPCELL_ROW_17_173
*1042 TAP_TAPCELL_ROW_17_174
*1043 TAP_TAPCELL_ROW_17_175
*1044 TAP_TAPCELL_ROW_18_176
*1045 TAP_TAPCELL_ROW_18_177
*1046 TAP_TAPCELL_ROW_18_178
*1047 TAP_TAPCELL_ROW_18_179
*1048 TAP_TAPCELL_ROW_18_180
*1049 TAP_TAPCELL_ROW_19_181
*1050 TAP_TAPCELL_ROW_19_182
*1051 TAP_TAPCELL_ROW_19_183
*1052 TAP_TAPCELL_ROW_19_184
*1053 TAP_TAPCELL_ROW_1_100
*1054 TAP_TAPCELL_ROW_1_101
*1055 TAP_TAPCELL_ROW_1_102
*1056 TAP_TAPCELL_ROW_1_103
*1057 TAP_TAPCELL_ROW_20_185
*1058 TAP_TAPCELL_ROW_20_186
*1059 TAP_TAPCELL_ROW_20_187
*1060 TAP_TAPCELL_ROW_20_188
*1061 TAP_TAPCELL_ROW_20_189
*1062 TAP_TAPCELL_ROW_21_190
*1063 TAP_TAPCELL_ROW_21_191
*1064 TAP_TAPCELL_ROW_21_192
*1065 TAP_TAPCELL_ROW_21_193
*1066 TAP_TAPCELL_ROW_22_194
*1067 TAP_TAPCELL_ROW_22_195
*1068 TAP_TAPCELL_ROW_22_196
*1069 TAP_TAPCELL_ROW_22_197
*1070 TAP_TAPCELL_ROW_22_198
*1071 TAP_TAPCELL_ROW_23_199
*1072 TAP_TAPCELL_ROW_23_200
*1073 TAP_TAPCELL_ROW_23_201
*1074 TAP_TAPCELL_ROW_23_202
*1075 TAP_TAPCELL_ROW_24_203
*1076 TAP_TAPCELL_ROW_24_204
*1077 TAP_TAPCELL_ROW_24_205
*1078 TAP_TAPCELL_ROW_24_206
*1079 TAP_TAPCELL_ROW_24_207
*1080 TAP_TAPCELL_ROW_25_208
*1081 TAP_TAPCELL_ROW_25_209
*1082 TAP_TAPCELL_ROW_25_210
*1083 TAP_TAPCELL_ROW_25_211
*1084 TAP_TAPCELL_ROW_26_212
*1085 TAP_TAPCELL_ROW_26_213
*1086 TAP_TAPCELL_ROW_26_214
*1087 TAP_TAPCELL_ROW_26_215
*1088 TAP_TAPCELL_ROW_26_216
*1089 TAP_TAPCELL_ROW_27_217
*1090 TAP_TAPCELL_ROW_27_218
*1091 TAP_TAPCELL_ROW_27_219
*1092 TAP_TAPCELL_ROW_27_220
*1093 TAP_TAPCELL_ROW_28_221
*1094 TAP_TAPCELL_ROW_28_222
*1095 TAP_TAPCELL_ROW_28_223
*1096 TAP_TAPCELL_ROW_28_224
*1097 TAP_TAPCELL_ROW_28_225
*1098 TAP_TAPCELL_ROW_29_226
*1099 TAP_TAPCELL_ROW_29_227
*1100 TAP_TAPCELL_ROW_29_228
*1101 TAP_TAPCELL_ROW_29_229
*1102 TAP_TAPCELL_ROW_2_104
*1103 TAP_TAPCELL_ROW_2_105
*1104 TAP_TAPCELL_ROW_2_106
*1105 TAP_TAPCELL_ROW_2_107
*1106 TAP_TAPCELL_ROW_2_108
*1107 TAP_TAPCELL_ROW_30_230
*1108 TAP_TAPCELL_ROW_30_231
*1109 TAP_TAPCELL_ROW_30_232
*1110 TAP_TAPCELL_ROW_30_233
*1111 TAP_TAPCELL_ROW_30_234
*1112 TAP_TAPCELL_ROW_31_235
*1113 TAP_TAPCELL_ROW_31_236
*1114 TAP_TAPCELL_ROW_31_237
*1115 TAP_TAPCELL_ROW_31_238
*1116 TAP_TAPCELL_ROW_32_239
*1117 TAP_TAPCELL_ROW_32_240
*1118 TAP_TAPCELL_ROW_32_241
*1119 TAP_TAPCELL_ROW_32_242
*1120 TAP_TAPCELL_ROW_32_243
*1121 TAP_TAPCELL_ROW_33_244
*1122 TAP_TAPCELL_ROW_33_245
*1123 TAP_TAPCELL_ROW_33_246
*1124 TAP_TAPCELL_ROW_33_247
*1125 TAP_TAPCELL_ROW_34_248
*1126 TAP_TAPCELL_ROW_34_249
*1127 TAP_TAPCELL_ROW_34_250
*1128 TAP_TAPCELL_ROW_34_251
*1129 TAP_TAPCELL_ROW_34_252
*1130 TAP_TAPCELL_ROW_35_253
*1131 TAP_TAPCELL_ROW_35_254
*1132 TAP_TAPCELL_ROW_35_255
*1133 TAP_TAPCELL_ROW_35_256
*1134 TAP_TAPCELL_ROW_36_257
*1135 TAP_TAPCELL_ROW_36_258
*1136 TAP_TAPCELL_ROW_36_259
*1137 TAP_TAPCELL_ROW_36_260
*1138 TAP_TAPCELL_ROW_36_261
*1139 TAP_TAPCELL_ROW_37_262
*1140 TAP_TAPCELL_ROW_37_263
*1141 TAP_TAPCELL_ROW_37_264
*1142 TAP_TAPCELL_ROW_37_265
*1143 TAP_TAPCELL_ROW_38_266
*1144 TAP_TAPCELL_ROW_38_267
*1145 TAP_TAPCELL_ROW_38_268
*1146 TAP_TAPCELL_ROW_38_269
*1147 TAP_TAPCELL_ROW_38_270
*1148 TAP_TAPCELL_ROW_39_271
*1149 TAP_TAPCELL_ROW_39_272
*1150 TAP_TAPCELL_ROW_39_273
*1151 TAP_TAPCELL_ROW_39_274
*1152 TAP_TAPCELL_ROW_3_109
*1153 TAP_TAPCELL_ROW_3_110
*1154 TAP_TAPCELL_ROW_3_111
*1155 TAP_TAPCELL_ROW_3_112
*1156 TAP_TAPCELL_ROW_40_275
*1157 TAP_TAPCELL_ROW_40_276
*1158 TAP_TAPCELL_ROW_40_277
*1159 TAP_TAPCELL_ROW_40_278
*1160 TAP_TAPCELL_ROW_40_279
*1161 TAP_TAPCELL_ROW_41_280
*1162 TAP_TAPCELL_ROW_41_281
*1163 TAP_TAPCELL_ROW_41_282
*1164 TAP_TAPCELL_ROW_41_283
*1165 TAP_TAPCELL_ROW_42_284
*1166 TAP_TAPCELL_ROW_42_285
*1167 TAP_TAPCELL_ROW_42_286
*1168 TAP_TAPCELL_ROW_42_287
*1169 TAP_TAPCELL_ROW_42_288
*1170 TAP_TAPCELL_ROW_43_289
*1171 TAP_TAPCELL_ROW_43_290
*1172 TAP_TAPCELL_ROW_43_291
*1173 TAP_TAPCELL_ROW_43_292
*1174 TAP_TAPCELL_ROW_44_293
*1175 TAP_TAPCELL_ROW_44_294
*1176 TAP_TAPCELL_ROW_44_295
*1177 TAP_TAPCELL_ROW_44_296
*1178 TAP_TAPCELL_ROW_44_297
*1179 TAP_TAPCELL_ROW_44_298
*1180 TAP_TAPCELL_ROW_44_299
*1181 TAP_TAPCELL_ROW_44_300
*1182 TAP_TAPCELL_ROW_44_301
*1183 TAP_TAPCELL_ROW_44_302
*1184 TAP_TAPCELL_ROW_4_113
*1185 TAP_TAPCELL_ROW_4_114
*1186 TAP_TAPCELL_ROW_4_115
*1187 TAP_TAPCELL_ROW_4_116
*1188 TAP_TAPCELL_ROW_4_117
*1189 TAP_TAPCELL_ROW_5_118
*1190 TAP_TAPCELL_ROW_5_119
*1191 TAP_TAPCELL_ROW_5_120
*1192 TAP_TAPCELL_ROW_5_121
*1193 TAP_TAPCELL_ROW_6_122
*1194 TAP_TAPCELL_ROW_6_123
*1195 TAP_TAPCELL_ROW_6_124
*1196 TAP_TAPCELL_ROW_6_125
*1197 TAP_TAPCELL_ROW_6_126
*1198 TAP_TAPCELL_ROW_7_127
*1199 TAP_TAPCELL_ROW_7_128
*1200 TAP_TAPCELL_ROW_7_129
*1201 TAP_TAPCELL_ROW_7_130
*1202 TAP_TAPCELL_ROW_8_131
*1203 TAP_TAPCELL_ROW_8_132
*1204 TAP_TAPCELL_ROW_8_133
*1205 TAP_TAPCELL_ROW_8_134
*1206 TAP_TAPCELL_ROW_8_135
*1207 TAP_TAPCELL_ROW_9_136
*1208 TAP_TAPCELL_ROW_9_137
*1209 TAP_TAPCELL_ROW_9_138
*1210 TAP_TAPCELL_ROW_9_139
*1211 _106_
*1212 _107_
*1213 _108_
*1214 _109_
*1215 _110_
*1216 _111_
*1217 _112_
*1218 _113_
*1219 _114_
*1220 _115_
*1221 _116_
*1222 _117_
*1223 _118_
*1224 _119_
*1225 _120_
*1226 _121_
*1227 _122_
*1228 _123_
*1229 _124_
*1230 _125_
*1231 _126_
*1232 _127_
*1233 _128_
*1234 _129_
*1235 _130_
*1236 _131_
*1237 _132_
*1238 _133_
*1239 _134_
*1240 _135_
*1241 _136_
*1242 _137_
*1243 _138_
*1244 _139_
*1245 _140_
*1246 _141_
*1247 _142_
*1248 _143_
*1249 _144_
*1250 _145_
*1251 _146_
*1252 _147_
*1253 _148_
*1254 _149_
*1255 _150_
*1256 _151_
*1257 _152_
*1258 _153_
*1259 _154_
*1260 _155_
*1261 _156_
*1262 _157_
*1263 _158_
*1264 _159_
*1265 _160_
*1266 _161_
*1267 _162_
*1268 _163_
*1269 _164_
*1270 _165_
*1271 _166_
*1272 _167_
*1273 _168_
*1274 _169_
*1275 _170_
*1276 _171_
*1277 _172_
*1278 _173_
*1279 _174_
*1280 _175_
*1281 _176_
*1282 _177_
*1283 _178_
*1284 _179_
*1285 _180_
*1286 _181_
*1287 _182_
*1288 _183_
*1289 _184_
*1290 _185_
*1291 _186_
*1292 _187_
*1293 _188_
*1294 _189_
*1295 _190_
*1296 _191_
*1297 _192_
*1298 _193_
*1299 _194_
*1300 _195_
*1301 _196_
*1302 _197_
*1303 _198_
*1304 _199_
*1305 _200_
*1306 _201_
*1307 _202_
*1308 _203_
*1309 _204_
*1310 _205_
*1311 _206_
*1312 _207_
*1313 _208_
*1314 _209_
*1315 _210_
*1316 _211_
*1317 _212_
*1318 _213_
*1319 _214_
*1320 _215_
*1321 _216_
*1322 _217_
*1323 _218_
*1324 _219_
*1325 _220_
*1326 _221_
*1327 _222_
*1328 _223_
*1329 _224_
*1330 _225_
*1331 _226_
*1332 _227_
*1333 _228_
*1334 _229_
*1335 _230_
*1336 _231_
*1337 _232_
*1338 _233_
*1339 _234_
*1340 _235_
*1341 _236_
*1342 _237_
*1343 _240_
*1344 _241_
*1345 clkbuf_0_clk
*1346 clkbuf_1_0__f_clk
*1347 clkbuf_1_1__f_clk
*1348 ita39_25
*1349 ita39_26
*1350 output1
*1351 output10
*1352 output11
*1353 output12
*1354 output13
*1355 output14
*1356 output15
*1357 output16
*1358 output17
*1359 output18
*1360 output19
*1361 output2
*1362 output20
*1363 output21
*1364 output22
*1365 output23
*1366 output24
*1367 output3
*1368 output4
*1369 output5
*1370 output6
*1371 output7
*1372 output8
*1373 output9

*PORTS
clk I
segm[0] O
segm[10] O
segm[11] O
segm[12] O
segm[13] O
segm[1] O
segm[2] O
segm[3] O
segm[4] O
segm[5] O
segm[6] O
segm[7] O
segm[8] O
segm[9] O
sel[0] O
sel[10] O
sel[11] O
sel[1] O
sel[2] O
sel[3] O
sel[4] O
sel[5] O
sel[6] O
sel[7] O
sel[8] O
sel[9] O

*D_NET *1 0.0139463
*CONN
*P clk I
*I *1345:I I *D gf180mcu_fd_sc_mcu7t5v0__clkbuf_16
*I *193:I I *D gf180mcu_fd_sc_mcu7t5v0__antenna
*CAP
1 clk 0.0038862
2 *1345:I 7.76524e-05
3 *193:I 0
4 *1:17 0.00396385
5 *1345:I *1222:I 1.80206e-05
6 *1:17 *1222:I 7.83779e-05
7 *1:17 *1254:A2 0.00170984
8 *1:17 *1301:A1 0.000370744
9 *1:17 *1322:D 0
10 *1:17 *1337:D 0
11 *1:17 *1356:I 0.00322321
12 *1:17 *102:31 2.23598e-06
13 *1:17 *123:29 0.000228948
14 *1:17 *131:14 0
15 *1:17 *141:14 9.57657e-05
16 *1:17 *141:20 0.000101052
17 *1:17 *141:33 0.000190426
*RES
1 clk *1:17 45.99 
2 *1:17 *193:I 4.5 
3 *1:17 *1345:I 5.032 
*END

*D_NET *2 0.00228355
*CONN
*P segm[0] O
*I *1348:ZN O *D gf180mcu_fd_sc_mcu7t5v0__tiel
*CAP
1 segm[0] 0.00090401
2 *1348:ZN 0.00090401
3 segm[0] segm[8] 0.000340576
4 segm[0] sel[2] 0.000119532
5 segm[0] *1358:I 1.54235e-05
*RES
1 *1348:ZN segm[0] 11.682 
*END

*D_NET *3 0.00171046
*CONN
*P segm[10] O
*I *1350:Z O *D gf180mcu_fd_sc_mcu7t5v0__buf_8
*CAP
1 segm[10] 0.000836555
2 *1350:Z 0.000836555
3 segm[10] *1350:I 3.73535e-05
*RES
1 *1350:Z segm[10] 19.086 
*END

*D_NET *4 0.00236742
*CONN
*P segm[11] O
*I *1361:Z O *D gf180mcu_fd_sc_mcu7t5v0__buf_8
*CAP
1 segm[11] 0.000930582
2 *1361:Z 0.000930582
3 segm[11] segm[9] 0.000122297
4 segm[11] sel[10] 0.00030796
5 segm[11] *1355:I 7.59985e-05
*RES
1 *1361:Z segm[11] 20.91 
*END

*D_NET *5 0.00207953
*CONN
*P segm[12] O
*I *1367:Z O *D gf180mcu_fd_sc_mcu7t5v0__buf_8
*CAP
1 segm[12] 0.00103977
2 *1367:Z 0.00103977
*RES
1 *1367:Z segm[12] 20.15 