*SPEF "ieee 1481-1999"
*DESIGN "ita37"
*DATE "11:11:11 Fri 11 11, 1111"
*VENDOR "OpenRCX"
*PROGRAM "Parallel Extraction"
*VERSION "1.0"
*DESIGN_FLOW "NAME_SCOPE LOCAL" "PIN_CAP NONE"
*DIVIDER /
*DELIMITER :
*BUS_DELIMITER []
*T_UNIT 1 NS
*C_UNIT 1 PF
*R_UNIT 1 OHM
*L_UNIT 1 HENRY

*NAME_MAP
*1 clk
*2 segm[0]
*3 segm[10]
*4 segm[11]
*5 segm[12]
*6 segm[13]
*7 net25
*8 segm[2]
*9 segm[3]
*10 net26
*11 segm[5]
*12 segm[6]
*13 segm[7]
*14 segm[8]
*15 segm[9]
*16 sel[0]
*17 sel[10]
*18 sel[11]
*19 sel[1]
*20 sel[2]
*21 sel[3]
*22 sel[4]
*23 sel[5]
*24 sel[6]
*25 sel[7]
*26 sel[8]
*27 sel[9]
*30 _000_
*31 _001_
*32 _002_
*33 _003_
*34 _004_
*35 _005_
*36 _006_
*37 _007_
*38 _008_
*39 _009_
*40 _010_
*41 _011_
*42 _012_
*43 _013_
*44 _014_
*45 _015_
*46 _016_
*47 _017_
*48 _018_
*49 _019_
*50 _020_
*51 _021_
*52 _022_
*53 _023_
*54 _024_
*55 _025_
*56 _026_
*57 _027_
*58 _028_
*59 _029_
*60 _030_
*61 _031_
*62 _032_
*63 _033_
*64 _034_
*65 _035_
*66 _036_
*67 _037_
*68 _038_
*69 _039_
*70 _040_
*71 _041_
*72 _042_
*73 _043_
*74 _044_
*75 _045_
*76 _046_
*77 _047_
*78 _048_
*79 _049_
*80 _050_
*81 _051_
*82 _052_
*83 _053_
*84 _054_
*85 _055_
*86 _056_
*87 _057_
*88 _058_
*89 _059_
*90 _060_
*91 _061_
*92 _062_
*93 _063_
*94 _064_
*95 _065_
*96 _066_
*97 _067_
*98 _068_
*99 _069_
*100 _070_
*101 _071_
*102 _072_
*103 _073_
*104 _074_
*105 _075_
*106 _076_
*107 _077_
*108 _078_
*109 _079_
*110 _080_
*111 _081_
*112 _082_
*113 _083_
*114 _084_
*115 _085_
*116 _086_
*117 _087_
*118 _088_
*119 _089_
*120 _090_
*121 _091_
*122 clknet_0_clk
*123 clknet_1_0__leaf_clk
*124 clknet_1_1__leaf_clk
*125 dut37\.count\[0\]
*126 dut37\.count\[1\]
*127 dut37\.count\[2\]
*128 dut37\.count\[3\]
*129 net1
*130 net10
*131 net11
*132 net12
*133 net13
*134 net14
*135 net15
*136 net16
*137 net17
*138 net18
*139 net19
*140 net2
*141 net20
*142 net21
*143 net22
*144 net23
*145 net24
*146 net3
*147 net4
*148 net5
*149 net6
*150 net7
*151 net8
*152 net9
*153 ANTENNA__184__CLK
*154 ANTENNA__185__CLK
*155 ANTENNA__186__CLK
*156 ANTENNA__187__CLK
*157 ANTENNA__188__CLK
*158 ANTENNA__189__CLK
*159 ANTENNA__190__CLK
*160 ANTENNA__191__CLK
*161 ANTENNA__192__CLK
*162 ANTENNA__193__CLK
*163 ANTENNA__194__CLK
*164 ANTENNA__195__CLK
*165 ANTENNA__196__CLK
*166 ANTENNA__197__CLK
*167 ANTENNA__198__CLK
*168 ANTENNA__199__CLK
*169 ANTENNA__200__CLK
*170 ANTENNA__201__CLK
*171 ANTENNA__202__CLK
*172 ANTENNA__203__CLK
*173 ANTENNA__204__CLK
*174 ANTENNA__205__CLK
*175 ANTENNA__206__CLK
*176 ANTENNA__207__CLK
*177 ANTENNA__208__CLK
*178 ANTENNA_clkbuf_0_clk_I
*179 FILLER_0_0_104
*180 FILLER_0_0_138
*181 FILLER_0_0_142
*182 FILLER_0_0_172
*183 FILLER_0_0_176
*184 FILLER_0_0_2
*185 FILLER_0_0_232
*186 FILLER_0_0_236
*187 FILLER_0_0_240
*188 FILLER_0_0_274
*189 FILLER_0_0_308
*190 FILLER_0_0_342
*191 FILLER_0_0_346
*192 FILLER_0_0_348
*193 FILLER_0_0_36
*194 FILLER_0_0_52
*195 FILLER_0_0_54
*196 FILLER_0_0_59
*197 FILLER_0_0_67
*198 FILLER_0_0_70
*199 FILLER_0_10_101
*200 FILLER_0_10_107
*201 FILLER_0_10_171
*202 FILLER_0_10_177
*203 FILLER_0_10_2
*204 FILLER_0_10_241
*205 FILLER_0_10_247
*206 FILLER_0_10_311
*207 FILLER_0_10_317
*208 FILLER_0_10_34
*209 FILLER_0_10_37
*210 FILLER_0_11_136
*211 FILLER_0_11_142
*212 FILLER_0_11_2
*213 FILLER_0_11_206
*214 FILLER_0_11_212
*215 FILLER_0_11_276
*216 FILLER_0_11_282
*217 FILLER_0_11_346
*218 FILLER_0_11_348
*219 FILLER_0_11_66
*220 FILLER_0_11_72
*221 FILLER_0_12_101
*222 FILLER_0_12_107
*223 FILLER_0_12_171
*224 FILLER_0_12_177
*225 FILLER_0_12_2
*226 FILLER_0_12_241
*227 FILLER_0_12_247
*228 FILLER_0_12_311
*229 FILLER_0_12_317
*230 FILLER_0_12_34
*231 FILLER_0_12_37
*232 FILLER_0_13_136
*233 FILLER_0_13_142
*234 FILLER_0_13_146
*235 FILLER_0_13_154
*236 FILLER_0_13_187
*237 FILLER_0_13_191
*238 FILLER_0_13_2
*239 FILLER_0_13_207
*240 FILLER_0_13_209
*241 FILLER_0_13_212
*242 FILLER_0_13_276
*243 FILLER_0_13_282
*244 FILLER_0_13_346
*245 FILLER_0_13_348
*246 FILLER_0_13_66
*247 FILLER_0_13_72
*248 FILLER_0_14_101
*249 FILLER_0_14_107
*250 FILLER_0_14_111
*251 FILLER_0_14_171
*252 FILLER_0_14_177
*253 FILLER_0_14_2
*254 FILLER_0_14_241
*255 FILLER_0_14_247
*256 FILLER_0_14_311
*257 FILLER_0_14_317
*258 FILLER_0_14_34
*259 FILLER_0_14_37
*260 FILLER_0_15_124
*261 FILLER_0_15_128
*262 FILLER_0_15_138
*263 FILLER_0_15_142
*264 FILLER_0_15_146
*265 FILLER_0_15_148
*266 FILLER_0_15_178
*267 FILLER_0_15_2
*268 FILLER_0_15_212
*269 FILLER_0_15_216
*270 FILLER_0_15_218
*271 FILLER_0_15_225
*272 FILLER_0_15_229
*273 FILLER_0_15_231
*274 FILLER_0_15_238
*275 FILLER_0_15_270
*276 FILLER_0_15_278
*277 FILLER_0_15_282
*278 FILLER_0_15_346
*279 FILLER_0_15_348
*280 FILLER_0_15_66
*281 FILLER_0_15_72
*282 FILLER_0_15_88
*283 FILLER_0_15_92
*284 FILLER_0_15_94
*285 FILLER_0_16_101
*286 FILLER_0_16_107
*287 FILLER_0_16_115
*288 FILLER_0_16_119
*289 FILLER_0_16_121
*290 FILLER_0_16_130
*291 FILLER_0_16_146
*292 FILLER_0_16_150
*293 FILLER_0_16_152
*294 FILLER_0_16_159
*295 FILLER_0_16_177
*296 FILLER_0_16_181
*297 FILLER_0_16_183
*298 FILLER_0_16_2
*299 FILLER_0_16_213
*300 FILLER_0_16_243
*301 FILLER_0_16_247
*302 FILLER_0_16_311
*303 FILLER_0_16_317
*304 FILLER_0_16_321
*305 FILLER_0_16_34
*306 FILLER_0_16_37
*307 FILLER_0_17_104
*308 FILLER_0_17_112
*309 FILLER_0_17_116
*310 FILLER_0_17_118
*311 FILLER_0_17_125
*312 FILLER_0_17_133
*313 FILLER_0_17_137
*314 FILLER_0_17_139
*315 FILLER_0_17_142
*316 FILLER_0_17_156
*317 FILLER_0_17_188
*318 FILLER_0_17_196
*319 FILLER_0_17_205
*320 FILLER_0_17_209
*321 FILLER_0_17_212
*322 FILLER_0_17_216
*323 FILLER_0_17_233
*324 FILLER_0_17_265
*325 FILLER_0_17_273
*326 FILLER_0_17_277
*327 FILLER_0_17_279
*328 FILLER_0_17_28
*329 FILLER_0_17_282
*330 FILLER_0_17_314
*331 FILLER_0_17_322
*332 FILLER_0_17_60
*333 FILLER_0_17_68
*334 FILLER_0_17_72
*335 FILLER_0_18_101
*336 FILLER_0_18_141
*337 FILLER_0_18_145
*338 FILLER_0_18_153
*339 FILLER_0_18_157
*340 FILLER_0_18_170
*341 FILLER_0_18_174
*342 FILLER_0_18_177
*343 FILLER_0_18_189
*344 FILLER_0_18_198
*345 FILLER_0_18_2
*346 FILLER_0_18_206
*347 FILLER_0_18_210
*348 FILLER_0_18_213
*349 FILLER_0_18_247
*350 FILLER_0_18_311
*351 FILLER_0_18_317
*352 FILLER_0_18_34
*353 FILLER_0_18_37
*354 FILLER_0_19_104
*355 FILLER_0_19_112
*356 FILLER_0_19_124
*357 FILLER_0_19_128
*358 FILLER_0_19_130
*359 FILLER_0_19_161
*360 FILLER_0_19_173
*361 FILLER_0_19_2
*362 FILLER_0_19_206
*363 FILLER_0_19_212
*364 FILLER_0_19_242
*365 FILLER_0_19_274
*366 FILLER_0_19_278
*367 FILLER_0_19_282
*368 FILLER_0_19_346
*369 FILLER_0_19_348
*370 FILLER_0_19_66
*371 FILLER_0_19_72
*372 FILLER_0_1_136
*373 FILLER_0_1_142
*374 FILLER_0_1_174
*375 FILLER_0_1_178
*376 FILLER_0_1_180
*377 FILLER_0_1_2
*378 FILLER_0_1_207
*379 FILLER_0_1_209
*380 FILLER_0_1_212
*381 FILLER_0_1_276
*382 FILLER_0_1_282
*383 FILLER_0_1_346
*384 FILLER_0_1_348
*385 FILLER_0_1_66
*386 FILLER_0_1_72
*387 FILLER_0_20_107
*388 FILLER_0_20_111
*389 FILLER_0_20_118
*390 FILLER_0_20_122
*391 FILLER_0_20_139
*392 FILLER_0_20_158
*393 FILLER_0_20_177
*394 FILLER_0_20_193
*395 FILLER_0_20_2
*396 FILLER_0_20_209
*397 FILLER_0_20_211
*398 FILLER_0_20_214
*399 FILLER_0_20_228
*400 FILLER_0_20_244
*401 FILLER_0_20_247
*402 FILLER_0_20_311
*403 FILLER_0_20_317
*404 FILLER_0_20_321
*405 FILLER_0_20_34
*406 FILLER_0_20_37
*407 FILLER_0_20_69
*408 FILLER_0_20_73
*409 FILLER_0_20_75
*410 FILLER_0_21_118
*411 FILLER_0_21_122
*412 FILLER_0_21_179
*413 FILLER_0_21_187
*414 FILLER_0_21_197
*415 FILLER_0_21_199
*416 FILLER_0_21_2
*417 FILLER_0_21_209
*418 FILLER_0_21_212
*419 FILLER_0_21_249
*420 FILLER_0_21_265
*421 FILLER_0_21_273
*422 FILLER_0_21_277
*423 FILLER_0_21_279
*424 FILLER_0_21_282
*425 FILLER_0_21_346
*426 FILLER_0_21_348
*427 FILLER_0_21_66
*428 FILLER_0_21_72
*429 FILLER_0_22_101
*430 FILLER_0_22_107
*431 FILLER_0_22_111
*432 FILLER_0_22_119
*433 FILLER_0_22_2
*434 FILLER_0_22_224
*435 FILLER_0_22_228
*436 FILLER_0_22_244
*437 FILLER_0_22_247
*438 FILLER_0_22_311
*439 FILLER_0_22_317
*440 FILLER_0_22_321
*441 FILLER_0_22_34
*442 FILLER_0_22_37
*443 FILLER_0_23_125
*444 FILLER_0_23_127
*445 FILLER_0_23_150
*446 FILLER_0_23_2
*447 FILLER_0_23_209
*448 FILLER_0_23_212
*449 FILLER_0_23_216
*450 FILLER_0_23_234
*451 FILLER_0_23_266
*452 FILLER_0_23_274
*453 FILLER_0_23_278
*454 FILLER_0_23_282
*455 FILLER_0_23_314
*456 FILLER_0_23_322
*457 FILLER_0_23_66
*458 FILLER_0_23_72
*459 FILLER_0_23_80
*460 FILLER_0_23_84
*461 FILLER_0_24_101
*462 FILLER_0_24_107
*463 FILLER_0_24_117
*464 FILLER_0_24_121
*465 FILLER_0_24_129
*466 FILLER_0_24_131
*467 FILLER_0_24_136
*468 FILLER_0_24_177
*469 FILLER_0_24_2
*470 FILLER_0_24_241
*471 FILLER_0_24_247
*472 FILLER_0_24_311
*473 FILLER_0_24_317
*474 FILLER_0_24_321
*475 FILLER_0_24_34
*476 FILLER_0_24_37
*477 FILLER_0_25_125
*478 FILLER_0_25_129
*479 FILLER_0_25_137
*480 FILLER_0_25_139
*481 FILLER_0_25_158
*482 FILLER_0_25_160
*483 FILLER_0_25_196
*484 FILLER_0_25_2
*485 FILLER_0_25_200
*486 FILLER_0_25_207
*487 FILLER_0_25_209
*488 FILLER_0_25_212
*489 FILLER_0_25_251
*490 FILLER_0_25_267
*491 FILLER_0_25_275
*492 FILLER_0_25_279
*493 FILLER_0_25_282
*494 FILLER_0_25_314
*495 FILLER_0_25_322
*496 FILLER_0_25_66
*497 FILLER_0_25_72
*498 FILLER_0_25_88
*499 FILLER_0_26_101
*500 FILLER_0_26_107
*501 FILLER_0_26_109
*502 FILLER_0_26_120
*503 FILLER_0_26_122
*504 FILLER_0_26_125
*505 FILLER_0_26_157
*506 FILLER_0_26_173
*507 FILLER_0_26_177
*508 FILLER_0_26_181
*509 FILLER_0_26_195
*510 FILLER_0_26_2
*511 FILLER_0_26_211
*512 FILLER_0_26_213
*513 FILLER_0_26_247
*514 FILLER_0_26_311
*515 FILLER_0_26_317
*516 FILLER_0_26_321
*517 FILLER_0_26_34
*518 FILLER_0_26_37
*519 FILLER_0_27_132
*520 FILLER_0_27_138
*521 FILLER_0_27_142
*522 FILLER_0_27_150
*523 FILLER_0_27_158
*524 FILLER_0_27_162
*525 FILLER_0_27_172
*526 FILLER_0_27_2
*527 FILLER_0_27_204
*528 FILLER_0_27_208
*529 FILLER_0_27_212
*530 FILLER_0_27_276
*531 FILLER_0_27_282
*532 FILLER_0_27_346
*533 FILLER_0_27_348
*534 FILLER_0_27_66
*535 FILLER_0_27_72
*536 FILLER_0_27_88
*537 FILLER_0_27_92
*538 FILLER_0_28_182
*539 FILLER_0_28_186
*540 FILLER_0_28_194
*541 FILLER_0_28_202
*542 FILLER_0_28_212
*543 FILLER_0_28_220
*544 FILLER_0_28_229
*545 FILLER_0_28_231
*546 FILLER_0_28_236
*547 FILLER_0_28_244
*548 FILLER_0_28_247
*549 FILLER_0_28_28
*550 FILLER_0_28_311
*551 FILLER_0_28_317
*552 FILLER_0_28_32
*553 FILLER_0_28_34
*554 FILLER_0_28_37
*555 FILLER_0_29_104
*556 FILLER_0_29_108
*557 FILLER_0_29_110
*558 FILLER_0_29_142
*559 FILLER_0_29_151
*560 FILLER_0_29_183
*561 FILLER_0_29_199
*562 FILLER_0_29_212
*563 FILLER_0_29_245
*564 FILLER_0_29_277
*565 FILLER_0_29_279
*566 FILLER_0_29_28
*567 FILLER_0_29_282
*568 FILLER_0_29_314
*569 FILLER_0_29_322
*570 FILLER_0_29_60
*571 FILLER_0_29_68
*572 FILLER_0_29_72
*573 FILLER_0_2_101
*574 FILLER_0_2_107
*575 FILLER_0_2_171
*576 FILLER_0_2_2
*577 FILLER_0_2_203
*578 FILLER_0_2_235
*579 FILLER_0_2_243
*580 FILLER_0_2_247
*581 FILLER_0_2_311
*582 FILLER_0_2_317
*583 FILLER_0_2_34
*584 FILLER_0_2_37
*585 FILLER_0_30_101
*586 FILLER_0_30_107
*587 FILLER_0_30_123
*588 FILLER_0_30_127
*589 FILLER_0_30_158
*590 FILLER_0_30_162
*591 FILLER_0_30_166
*592 FILLER_0_30_192
*593 FILLER_0_30_196
*594 FILLER_0_30_2
*595 FILLER_0_30_226
*596 FILLER_0_30_230
*597 FILLER_0_30_244
*598 FILLER_0_30_247
*599 FILLER_0_30_311
*600 FILLER_0_30_317
*601 FILLER_0_30_321
*602 FILLER_0_30_34
*603 FILLER_0_30_37
*604 FILLER_0_31_136
*605 FILLER_0_31_147
*606 FILLER_0_31_163
*607 FILLER_0_31_194
*608 FILLER_0_31_198
*609 FILLER_0_31_2
*610 FILLER_0_31_206
*611 FILLER_0_31_218
*612 FILLER_0_31_250
*613 FILLER_0_31_266
*614 FILLER_0_31_274
*615 FILLER_0_31_278
*616 FILLER_0_31_282
*617 FILLER_0_31_346
*618 FILLER_0_31_348
*619 FILLER_0_31_66
*620 FILLER_0_31_72
*621 FILLER_0_32_101
*622 FILLER_0_32_107
*623 FILLER_0_32_171
*624 FILLER_0_32_183
*625 FILLER_0_32_2
*626 FILLER_0_32_215
*627 FILLER_0_32_231
*628 FILLER_0_32_239
*629 FILLER_0_32_243
*630 FILLER_0_32_247
*631 FILLER_0_32_311
*632 FILLER_0_32_317
*633 FILLER_0_32_34
*634 FILLER_0_32_37
*635 FILLER_0_33_136
*636 FILLER_0_33_142
*637 FILLER_0_33_2
*638 FILLER_0_33_206
*639 FILLER_0_33_212
*640 FILLER_0_33_276
*641 FILLER_0_33_282
*642 FILLER_0_33_346
*643 FILLER_0_33_348
*644 FILLER_0_33_66
*645 FILLER_0_33_72
*646 FILLER_0_34_101
*647 FILLER_0_34_107
*648 FILLER_0_34_171
*649 FILLER_0_34_177
*650 FILLER_0_34_2
*651 FILLER_0_34_241
*652 FILLER_0_34_247
*653 FILLER_0_34_311
*654 FILLER_0_34_317
*655 FILLER_0_34_34
*656 FILLER_0_34_37
*657 FILLER_0_35_136
*658 FILLER_0_35_142
*659 FILLER_0_35_2
*660 FILLER_0_35_206
*661 FILLER_0_35_212
*662 FILLER_0_35_276
*663 FILLER_0_35_282
*664 FILLER_0_35_346
*665 FILLER_0_35_348
*666 FILLER_0_35_66
*667 FILLER_0_35_72
*668 FILLER_0_36_101
*669 FILLER_0_36_107
*670 FILLER_0_36_171
*671 FILLER_0_36_177
*672 FILLER_0_36_2
*673 FILLER_0_36_241
*674 FILLER_0_36_247
*675 FILLER_0_36_311
*676 FILLER_0_36_317
*677 FILLER_0_36_34
*678 FILLER_0_36_37
*679 FILLER_0_37_136
*680 FILLER_0_37_142
*681 FILLER_0_37_2
*682 FILLER_0_37_206
*683 FILLER_0_37_212
*684 FILLER_0_37_276
*685 FILLER_0_37_282
*686 FILLER_0_37_346
*687 FILLER_0_37_348
*688 FILLER_0_37_66
*689 FILLER_0_37_72
*690 FILLER_0_38_101
*691 FILLER_0_38_107
*692 FILLER_0_38_171
*693 FILLER_0_38_177
*694 FILLER_0_38_2
*695 FILLER_0_38_241
*696 FILLER_0_38_247
*697 FILLER_0_38_311
*698 FILLER_0_38_317
*699 FILLER_0_38_34
*700 FILLER_0_38_37
*701 FILLER_0_39_136
*702 FILLER_0_39_142
*703 FILLER_0_39_2
*704 FILLER_0_39_206
*705 FILLER_0_39_212
*706 FILLER_0_39_276
*707 FILLER_0_39_282
*708 FILLER_0_39_346
*709 FILLER_0_39_348
*710 FILLER_0_39_66
*711 FILLER_0_39_72
*712 FILLER_0_3_136
*713 FILLER_0_3_142
*714 FILLER_0_3_2
*715 FILLER_0_3_206
*716 FILLER_0_3_212
*717 FILLER_0_3_276
*718 FILLER_0_3_282
*719 FILLER_0_3_346
*720 FILLER_0_3_348
*721 FILLER_0_3_66
*722 FILLER_0_3_72
*723 FILLER_0_40_101
*724 FILLER_0_40_107
*725 FILLER_0_40_171
*726 FILLER_0_40_177
*727 FILLER_0_40_2
*728 FILLER_0_40_241
*729 FILLER_0_40_247
*730 FILLER_0_40_311
*731 FILLER_0_40_317
*732 FILLER_0_40_34
*733 FILLER_0_40_37
*734 FILLER_0_41_136
*735 FILLER_0_41_142
*736 FILLER_0_41_2
*737 FILLER_0_41_206
*738 FILLER_0_41_212
*739 FILLER_0_41_276
*740 FILLER_0_41_282
*741 FILLER_0_41_346
*742 FILLER_0_41_348
*743 FILLER_0_41_66
*744 FILLER_0_41_72
*745 FILLER_0_42_101
*746 FILLER_0_42_107
*747 FILLER_0_42_171
*748 FILLER_0_42_177
*749 FILLER_0_42_2
*750 FILLER_0_42_241
*751 FILLER_0_42_247
*752 FILLER_0_42_311
*753 FILLER_0_42_317
*754 FILLER_0_42_333
*755 FILLER_0_42_34
*756 FILLER_0_42_341
*757 FILLER_0_42_37
*758 FILLER_0_43_136
*759 FILLER_0_43_142
*760 FILLER_0_43_144
*761 FILLER_0_43_171
*762 FILLER_0_43_2
*763 FILLER_0_43_201
*764 FILLER_0_43_209
*765 FILLER_0_43_212
*766 FILLER_0_43_220
*767 FILLER_0_43_222
*768 FILLER_0_43_249
*769 FILLER_0_43_265
*770 FILLER_0_43_273
*771 FILLER_0_43_277
*772 FILLER_0_43_279
*773 FILLER_0_43_282
*774 FILLER_0_43_346
*775 FILLER_0_43_348
*776 FILLER_0_43_66
*777 FILLER_0_43_72
*778 FILLER_0_44_104
*779 FILLER_0_44_138
*780 FILLER_0_44_142
*781 FILLER_0_44_172
*782 FILLER_0_44_176
*783 FILLER_0_44_2
*784 FILLER_0_44_232
*785 FILLER_0_44_236
*786 FILLER_0_44_240
*787 FILLER_0_44_274
*788 FILLER_0_44_308
*789 FILLER_0_44_342
*790 FILLER_0_44_346
*791 FILLER_0_44_348
*792 FILLER_0_44_36
*793 FILLER_0_44_70
*794 FILLER_0_4_101
*795 FILLER_0_4_107
*796 FILLER_0_4_171
*797 FILLER_0_4_177
*798 FILLER_0_4_2
*799 FILLER_0_4_241
*800 FILLER_0_4_247
*801 FILLER_0_4_311
*802 FILLER_0_4_317
*803 FILLER_0_4_34
*804 FILLER_0_4_37
*805 FILLER_0_5_136
*806 FILLER_0_5_142
*807 FILLER_0_5_2
*808 FILLER_0_5_206
*809 FILLER_0_5_212
*810 FILLER_0_5_276
*811 FILLER_0_5_282
*812 FILLER_0_5_346
*813 FILLER_0_5_348
*814 FILLER_0_5_66
*815 FILLER_0_5_72
*816 FILLER_0_6_101
*817 FILLER_0_6_107
*818 FILLER_0_6_171
*819 FILLER_0_6_177
*820 FILLER_0_6_2
*821 FILLER_0_6_241
*822 FILLER_0_6_247
*823 FILLER_0_6_311
*824 FILLER_0_6_317
*825 FILLER_0_6_34
*826 FILLER_0_6_37
*827 FILLER_0_7_136
*828 FILLER_0_7_142
*829 FILLER_0_7_2
*830 FILLER_0_7_206
*831 FILLER_0_7_212
*832 FILLER_0_7_276
*833 FILLER_0_7_282
*834 FILLER_0_7_346
*835 FILLER_0_7_348
*836 FILLER_0_7_66
*837 FILLER_0_7_72
*838 FILLER_0_8_101
*839 FILLER_0_8_107
*840 FILLER_0_8_171
*841 FILLER_0_8_177
*842 FILLER_0_8_2
*843 FILLER_0_8_241
*844 FILLER_0_8_247
*845 FILLER_0_8_311
*846 FILLER_0_8_317
*847 FILLER_0_8_34
*848 FILLER_0_8_37
*849 FILLER_0_9_136
*850 FILLER_0_9_142
*851 FILLER_0_9_2
*852 FILLER_0_9_206
*853 FILLER_0_9_212
*854 FILLER_0_9_276
*855 FILLER_0_9_282
*856 FILLER_0_9_346
*857 FILLER_0_9_348
*858 FILLER_0_9_66
*859 FILLER_0_9_72
*860 PHY_EDGE_ROW_0_Left_45
*861 PHY_EDGE_ROW_0_Right_0
*862 PHY_EDGE_ROW_10_Left_55
*863 PHY_EDGE_ROW_10_Right_10
*864 PHY_EDGE_ROW_11_Left_56
*865 PHY_EDGE_ROW_11_Right_11
*866 PHY_EDGE_ROW_12_Left_57
*867 PHY_EDGE_ROW_12_Right_12
*868 PHY_EDGE_ROW_13_Left_58
*869 PHY_EDGE_ROW_13_Right_13
*870 PHY_EDGE_ROW_14_Left_59
*871 PHY_EDGE_ROW_14_Right_14
*872 PHY_EDGE_ROW_15_Left_60
*873 PHY_EDGE_ROW_15_Right_15
*874 PHY_EDGE_ROW_16_Left_61
*875 PHY_EDGE_ROW_16_Right_16
*876 PHY_EDGE_ROW_17_Left_62
*877 PHY_EDGE_ROW_17_Right_17
*878 PHY_EDGE_ROW_18_Left_63
*879 PHY_EDGE_ROW_18_Right_18
*880 PHY_EDGE_ROW_19_Left_64
*881 PHY_EDGE_ROW_19_Right_19
*882 PHY_EDGE_ROW_1_Left_46
*883 PHY_EDGE_ROW_1_Right_1
*884 PHY_EDGE_ROW_20_Left_65
*885 PHY_EDGE_ROW_20_Right_20
*886 PHY_EDGE_ROW_21_Left_66
*887 PHY_EDGE_ROW_21_Right_21
*888 PHY_EDGE_ROW_22_Left_67
*889 PHY_EDGE_ROW_22_Right_22
*890 PHY_EDGE_ROW_23_Left_68
*891 PHY_EDGE_ROW_23_Right_23
*892 PHY_EDGE_ROW_24_Left_69
*893 PHY_EDGE_ROW_24_Right_24
*894 PHY_EDGE_ROW_25_Left_70
*895 PHY_EDGE_ROW_25_Right_25
*896 PHY_EDGE_ROW_26_Left_71
*897 PHY_EDGE_ROW_26_Right_26
*898 PHY_EDGE_ROW_27_Left_72
*899 PHY_EDGE_ROW_27_Right_27
*900 PHY_EDGE_ROW_28_Left_73
*901 PHY_EDGE_ROW_28_Right_28
*902 PHY_EDGE_ROW_29_Left_74
*903 PHY_EDGE_ROW_29_Right_29
*904 PHY_EDGE_ROW_2_Left_47
*905 PHY_EDGE_ROW_2_Right_2
*906 PHY_EDGE_ROW_30_Left_75
*907 PHY_EDGE_ROW_30_Right_30
*908 PHY_EDGE_ROW_31_Left_76
*909 PHY_EDGE_ROW_31_Right_31
*910 PHY_EDGE_ROW_32_Left_77
*911 PHY_EDGE_ROW_32_Right_32
*912 PHY_EDGE_ROW_33_Left_78
*913 PHY_EDGE_ROW_33_Right_33
*914 PHY_EDGE_ROW_34_Left_79
*915 PHY_EDGE_ROW_34_Right_34
*916 PHY_EDGE_ROW_35_Left_80
*917 PHY_EDGE_ROW_35_Right_35
*918 PHY_EDGE_ROW_36_Left_81
*919 PHY_EDGE_ROW_36_Right_36
*920 PHY_EDGE_ROW_37_Left_82
*921 PHY_EDGE_ROW_37_Right_37
*922 PHY_EDGE_ROW_38_Left_83
*923 PHY_EDGE_ROW_38_Right_38
*924 PHY_EDGE_ROW_39_Left_84
*925 PHY_EDGE_ROW_39_Right_39
*926 PHY_EDGE_ROW_3_Left_48
*927 PHY_EDGE_ROW_3_Right_3
*928 PHY_EDGE_ROW_40_Left_85
*929 PHY_EDGE_ROW_40_Right_40
*930 PHY_EDGE_ROW_41_Left_86
*931 PHY_EDGE_ROW_41_Right_41
*932 PHY_EDGE_ROW_42_Left_87
*933 PHY_EDGE_ROW_42_Right_42
*934 PHY_EDGE_ROW_43_Left_88
*935 PHY_EDGE_ROW_43_Right_43
*936 PHY_EDGE_ROW_44_Left_89
*937 PHY_EDGE_ROW_44_Right_44
*938 PHY_EDGE_ROW_4_Left_49
*939 PHY_EDGE_ROW_4_Right_4
*940 PHY_EDGE_ROW_5_Left_50
*941 PHY_EDGE_ROW_5_Right_5
*942 PHY_EDGE_ROW_6_Left_51
*943 PHY_EDGE_ROW_6_Right_6
*944 PHY_EDGE_ROW_7_Left_52
*945 PHY_EDGE_ROW_7_Right_7
*946 PHY_EDGE_ROW_8_Left_53
*947 PHY_EDGE_ROW_8_Right_8
*948 PHY_EDGE_ROW_9_Left_54
*949 PHY_EDGE_ROW_9_Right_9
*950 TAP_TAPCELL_ROW_0_90
*951 TAP_TAPCELL_ROW_0_91
*952 TAP_TAPCELL_ROW_0_92
*953 TAP_TAPCELL_ROW_0_93
*954 TAP_TAPCELL_ROW_0_94
*955 TAP_TAPCELL_ROW_0_95
*956 TAP_TAPCELL_ROW_0_96
*957 TAP_TAPCELL_ROW_0_97
*958 TAP_TAPCELL_ROW_0_98
*959 TAP_TAPCELL_ROW_0_99
*960 TAP_TAPCELL_ROW_10_140
*961 TAP_TAPCELL_ROW_10_141
*962 TAP_TAPCELL_ROW_10_142
*963 TAP_TAPCELL_ROW_10_143
*964 TAP_TAPCELL_ROW_10_144
*965 TAP_TAPCELL_ROW_11_145
*966 TAP_TAPCELL_ROW_11_146
*967 TAP_TAPCELL_ROW_11_147
*968 TAP_TAPCELL_ROW_11_148
*969 TAP_TAPCELL_ROW_12_149
*970 TAP_TAPCELL_ROW_12_150
*971 TAP_TAPCELL_ROW_12_151
*972 TAP_TAPCELL_ROW_12_152
*973 TAP_TAPCELL_ROW_12_153
*974 TAP_TAPCELL_ROW_13_154
*975 TAP_TAPCELL_ROW_13_155
*976 TAP_TAPCELL_ROW_13_156
*977 TAP_TAPCELL_ROW_13_157
*978 TAP_TAPCELL_ROW_14_158
*979 TAP_TAPCELL_ROW_14_159
*980 TAP_TAPCELL_ROW_14_160
*981 TAP_TAPCELL_ROW_14_161
*982 TAP_TAPCELL_ROW_14_162
*983 TAP_TAPCELL_ROW_15_163
*984 TAP_TAPCELL_ROW_15_164
*985 TAP_TAPCELL_ROW_15_165
*986 TAP_TAPCELL_ROW_15_166
*987 TAP_TAPCELL_ROW_16_167
*988 TAP_TAPCELL_ROW_16_168
*989 TAP_TAPCELL_ROW_16_169
*990 TAP_TAPCELL_ROW_16_170
*991 TAP_TAPCELL_ROW_16_171
*992 TAP_TAPCELL_ROW_17_172
*993 TAP_TAPCELL_ROW_17_173
*994 TAP_TAPCELL_ROW_17_174
*995 TAP_TAPCELL_ROW_17_175
*996 TAP_TAPCELL_ROW_18_176
*997 TAP_TAPCELL_ROW_18_177
*998 TAP_TAPCELL_ROW_18_178
*999 TAP_TAPCELL_ROW_18_179
*1000 TAP_TAPCELL_ROW_18_180
*1001 TAP_TAPCELL_ROW_19_181
*1002 TAP_TAPCELL_ROW_19_182
*1003 TAP_TAPCELL_ROW_19_183
*1004 TAP_TAPCELL_ROW_19_184
*1005 TAP_TAPCELL_ROW_1_100
*1006 TAP_TAPCELL_ROW_1_101
*1007 TAP_TAPCELL_ROW_1_102
*1008 TAP_TAPCELL_ROW_1_103
*1009 TAP_TAPCELL_ROW_20_185
*1010 TAP_TAPCELL_ROW_20_186
*1011 TAP_TAPCELL_ROW_20_187
*1012 TAP_TAPCELL_ROW_20_188
*1013 TAP_TAPCELL_ROW_20_189
*1014 TAP_TAPCELL_ROW_21_190
*1015 TAP_TAPCELL_ROW_21_191
*1016 TAP_TAPCELL_ROW_21_192
*1017 TAP_TAPCELL_ROW_21_193
*1018 TAP_TAPCELL_ROW_22_194
*1019 TAP_TAPCELL_ROW_22_195
*1020 TAP_TAPCELL_ROW_22_196
*1021 TAP_TAPCELL_ROW_22_197
*1022 TAP_TAPCELL_ROW_22_198
*1023 TAP_TAPCELL_ROW_23_199
*1024 TAP_TAPCELL_ROW_23_200
*1025 TAP_TAPCELL_ROW_23_201
*1026 TAP_TAPCELL_ROW_23_202
*1027 TAP_TAPCELL_ROW_24_203
*1028 TAP_TAPCELL_ROW_24_204
*1029 TAP_TAPCELL_ROW_24_205
*1030 TAP_TAPCELL_ROW_24_206
*1031 TAP_TAPCELL_ROW_24_207
*1032 TAP_TAPCELL_ROW_25_208
*1033 TAP_TAPCELL_ROW_25_209
*1034 TAP_TAPCELL_ROW_25_210
*1035 TAP_TAPCELL_ROW_25_211
*1036 TAP_TAPCELL_ROW_26_212
*1037 TAP_TAPCELL_ROW_26_213
*1038 TAP_TAPCELL_ROW_26_214
*1039 TAP_TAPCELL_ROW_26_215
*1040 TAP_TAPCELL_ROW_26_216
*1041 TAP_TAPCELL_ROW_27_217
*1042 TAP_TAPCELL_ROW_27_218
*1043 TAP_TAPCELL_ROW_27_219
*1044 TAP_TAPCELL_ROW_27_220
*1045 TAP_TAPCELL_ROW_28_221
*1046 TAP_TAPCELL_ROW_28_222
*1047 TAP_TAPCELL_ROW_28_223
*1048 TAP_TAPCELL_ROW_28_224
*1049 TAP_TAPCELL_ROW_28_225
*1050 TAP_TAPCELL_ROW_29_226
*1051 TAP_TAPCELL_ROW_29_227
*1052 TAP_TAPCELL_ROW_29_228
*1053 TAP_TAPCELL_ROW_29_229
*1054 TAP_TAPCELL_ROW_2_104
*1055 TAP_TAPCELL_ROW_2_105
*1056 TAP_TAPCELL_ROW_2_106
*1057 TAP_TAPCELL_ROW_2_107
*1058 TAP_TAPCELL_ROW_2_108
*1059 TAP_TAPCELL_ROW_30_230
*1060 TAP_TAPCELL_ROW_30_231
*1061 TAP_TAPCELL_ROW_30_232
*1062 TAP_TAPCELL_ROW_30_233
*1063 TAP_TAPCELL_ROW_30_234
*1064 TAP_TAPCELL_ROW_31_235
*1065 TAP_TAPCELL_ROW_31_236
*1066 TAP_TAPCELL_ROW_31_237
*1067 TAP_TAPCELL_ROW_31_238
*1068 TAP_TAPCELL_ROW_32_239
*1069 TAP_TAPCELL_ROW_32_240
*1070 TAP_TAPCELL_ROW_32_241
*1071 TAP_TAPCELL_ROW_32_242
*1072 TAP_TAPCELL_ROW_32_243
*1073 TAP_TAPCELL_ROW_33_244
*1074 TAP_TAPCELL_ROW_33_245
*1075 TAP_TAPCELL_ROW_33_246
*1076 TAP_TAPCELL_ROW_33_247
*1077 TAP_TAPCELL_ROW_34_248
*1078 TAP_TAPCELL_ROW_34_249
*1079 TAP_TAPCELL_ROW_34_250
*1080 TAP_TAPCELL_ROW_34_251
*1081 TAP_TAPCELL_ROW_34_252
*1082 TAP_TAPCELL_ROW_35_253
*1083 TAP_TAPCELL_ROW_35_254
*1084 TAP_TAPCELL_ROW_35_255
*1085 TAP_TAPCELL_ROW_35_256
*1086 TAP_TAPCELL_ROW_36_257
*1087 TAP_TAPCELL_ROW_36_258
*1088 TAP_TAPCELL_ROW_36_259
*1089 TAP_TAPCELL_ROW_36_260
*1090 TAP_TAPCELL_ROW_36_261
*1091 TAP_TAPCELL_ROW_37_262
*1092 TAP_TAPCELL_ROW_37_263
*1093 TAP_TAPCELL_ROW_37_264
*1094 TAP_TAPCELL_ROW_37_265
*1095 TAP_TAPCELL_ROW_38_266
*1096 TAP_TAPCELL_ROW_38_267
*1097 TAP_TAPCELL_ROW_38_268
*1098 TAP_TAPCELL_ROW_38_269
*1099 TAP_TAPCELL_ROW_38_270
*1100 TAP_TAPCELL_ROW_39_271
*1101 TAP_TAPCELL_ROW_39_272
*1102 TAP_TAPCELL_ROW_39_273
*1103 TAP_TAPCELL_ROW_39_274
*1104 TAP_TAPCELL_ROW_3_109
*1105 TAP_TAPCELL_ROW_3_110
*1106 TAP_TAPCELL_ROW_3_111
*1107 TAP_TAPCELL_ROW_3_112
*1108 TAP_TAPCELL_ROW_40_275
*1109 TAP_TAPCELL_ROW_40_276
*1110 TAP_TAPCELL_ROW_40_277
*1111 TAP_TAPCELL_ROW_40_278
*1112 TAP_TAPCELL_ROW_40_279
*1113 TAP_TAPCELL_ROW_41_280
*1114 TAP_TAPCELL_ROW_41_281
*1115 TAP_TAPCELL_ROW_41_282
*1116 TAP_TAPCELL_ROW_41_283
*1117 TAP_TAPCELL_ROW_42_284
*1118 TAP_TAPCELL_ROW_42_285
*1119 TAP_TAPCELL_ROW_42_286
*1120 TAP_TAPCELL_ROW_42_287
*1121 TAP_TAPCELL_ROW_42_288
*1122 TAP_TAPCELL_ROW_43_289
*1123 TAP_TAPCELL_ROW_43_290
*1124 TAP_TAPCELL_ROW_43_291
*1125 TAP_TAPCELL_ROW_43_292
*1126 TAP_TAPCELL_ROW_44_293
*1127 TAP_TAPCELL_ROW_44_294
*1128 TAP_TAPCELL_ROW_44_295
*1129 TAP_TAPCELL_ROW_44_296
*1130 TAP_TAPCELL_ROW_44_297
*1131 TAP_TAPCELL_ROW_44_298
*1132 TAP_TAPCELL_ROW_44_299
*1133 TAP_TAPCELL_ROW_44_300
*1134 TAP_TAPCELL_ROW_44_301
*1135 TAP_TAPCELL_ROW_44_302
*1136 TAP_TAPCELL_ROW_4_113
*1137 TAP_TAPCELL_ROW_4_114
*1138 TAP_TAPCELL_ROW_4_115
*1139 TAP_TAPCELL_ROW_4_116
*1140 TAP_TAPCELL_ROW_4_117
*1141 TAP_TAPCELL_ROW_5_118
*1142 TAP_TAPCELL_ROW_5_119
*1143 TAP_TAPCELL_ROW_5_120
*1144 TAP_TAPCELL_ROW_5_121
*1145 TAP_TAPCELL_ROW_6_122
*1146 TAP_TAPCELL_ROW_6_123
*1147 TAP_TAPCELL_ROW_6_124
*1148 TAP_TAPCELL_ROW_6_125
*1149 TAP_TAPCELL_ROW_6_126
*1150 TAP_TAPCELL_ROW_7_127
*1151 TAP_TAPCELL_ROW_7_128
*1152 TAP_TAPCELL_ROW_7_129
*1153 TAP_TAPCELL_ROW_7_130
*1154 TAP_TAPCELL_ROW_8_131
*1155 TAP_TAPCELL_ROW_8_132
*1156 TAP_TAPCELL_ROW_8_133
*1157 TAP_TAPCELL_ROW_8_134
*1158 TAP_TAPCELL_ROW_8_135
*1159 TAP_TAPCELL_ROW_9_136
*1160 TAP_TAPCELL_ROW_9_137
*1161 TAP_TAPCELL_ROW_9_138
*1162 TAP_TAPCELL_ROW_9_139
*1163 _092_
*1164 _093_
*1165 _094_
*1166 _095_
*1167 _096_
*1168 _097_
*1169 _098_
*1170 _099_
*1171 _100_
*1172 _101_
*1173 _102_
*1174 _103_
*1175 _104_
*1176 _105_
*1177 _106_
*1178 _107_
*1179 _108_
*1180 _109_
*1181 _110_
*1182 _111_
*1183 _112_
*1184 _113_
*1185 _114_
*1186 _115_
*1187 _116_
*1188 _117_
*1189 _118_
*1190 _119_
*1191 _120_
*1192 _121_
*1193 _122_
*1194 _123_
*1195 _124_
*1196 _125_
*1197 _126_
*1198 _127_
*1199 _128_
*1200 _129_
*1201 _130_
*1202 _131_
*1203 _132_
*1204 _133_
*1205 _134_
*1206 _135_
*1207 _136_
*1208 _137_
*1209 _138_
*1210 _139_
*1211 _140_
*1212 _141_
*1213 _142_
*1214 _143_
*1215 _144_
*1216 _145_
*1217 _146_
*1218 _147_
*1219 _148_
*1220 _149_
*1221 _150_
*1222 _151_
*1223 _152_
*1224 _153_
*1225 _154_
*1226 _155_
*1227 _156_
*1228 _157_
*1229 _158_
*1230 _159_
*1231 _160_
*1232 _161_
*1233 _162_
*1234 _163_
*1235 _164_
*1236 _165_
*1237 _166_
*1238 _167_
*1239 _168_
*1240 _169_
*1241 _170_
*1242 _171_
*1243 _172_
*1244 _173_
*1245 _174_
*1246 _175_
*1247 _176_
*1248 _177_
*1249 _178_
*1250 _179_
*1251 _180_
*1252 _181_
*1253 _182_
*1254 _183_
*1255 _184_
*1256 _185_
*1257 _186_
*1258 _187_
*1259 _188_
*1260 _189_
*1261 _190_
*1262 _191_
*1263 _192_
*1264 _193_
*1265 _194_
*1266 _195_
*1267 _196_
*1268 _197_
*1269 _198_
*1270 _199_
*1271 _200_
*1272 _201_
*1273 _202_
*1274 _203_
*1275 _204_
*1276 _205_
*1277 _206_
*1278 _207_
*1279 _208_
*1280 _211_
*1281 _212_
*1282 _213_
*1283 clkbuf_0_clk
*1284 clkbuf_1_0__f_clk
*1285 clkbuf_1_1__f_clk
*1286 ita37_25
*1287 ita37_26
*1288 output1
*1289 output10
*1290 output11
*1291 output12
*1292 output13
*1293 output14
*1294 output15
*1295 output16
*1296 output17
*1297 output18
*1298 output19
*1299 output2
*1300 output20
*1301 output21
*1302 output22
*1303 output23
*1304 output24
*1305 output3
*1306 output4
*1307 output5
*1308 output6
*1309 output7
*1310 output8
*1311 output9

*PORTS
clk I
segm[0] O
segm[10] O
segm[11] O
segm[12] O
segm[13] O
segm[1] O
segm[2] O
segm[3] O
segm[4] O
segm[5] O
segm[6] O
segm[7] O
segm[8] O
segm[9] O
sel[0] O
sel[10] O
sel[11] O
sel[1] O
sel[2] O
sel[3] O
sel[4] O
sel[5] O
sel[6] O
sel[7] O
sel[8] O
sel[9] O

*D_NET *1 0.0135105
*CONN
*P clk I
*I *1283:I I *D gf180mcu_fd_sc_mcu7t5v0__clkbuf_16
*I *178:I I *D gf180mcu_fd_sc_mcu7t5v0__antenna
*CAP
1 clk 0.00413163
2 *1283:I 0.000345503
3 *178:I 0
4 *1:13 0.00447713
5 *1283:I *1178:A2 5.58747e-05
6 *1283:I *1190:A1 8.5071e-05
7 *1283:I *1203:A1 0
8 *1283:I *1210:A1 0.000128618
9 *1283:I *1210:A2 0
10 *1283:I *1213:A1 3.41065e-05
11 *1283:I *1251:A2 0.000233987
12 *1283:I *58:23 3.01487e-05
13 *1283:I *87:27 0.000334333
14 *1283:I *93:25 0.000309984
15 *1283:I *126:35 3.01487e-05
16 *1:13 *156:I 0.000372735
17 *1:13 *1192:A1 7.48193e-05
18 *1:13 *1192:A2 0.000161438
19 *1:13 *1203:A2 0.000664135
20 *1:13 *1217:A3 0.000267505
21 *1:13 *1258:D 0.000113535
22 *1:13 *1259:D 0
23 *1:13 *1294:I 0.00105855
24 *1:13 *87:27 9.92405e-05
25 *1:13 *93:25 0.000437294
26 *1:13 *107:16 3.1506e-05
27 *1:13 *127:12 3.32109e-05
*RES
1 clk *1:13 44.325 
2 *1:13 *178:I 9 
3 *1:13 *1283:I 12.42 
*END

*D_NET *2 0.000949337
*CONN
*P segm[0] O
*I *1288:Z O *D gf180mcu_fd_sc_mcu7t5v0__buf_8
*CAP
1 segm[0] 0.000426282
2 *1288:Z 0.000426282
3 segm[0] segm[3] 9.67726e-05
*RES
1 *1288:Z segm[0] 12.195 
*END

*D_NET *3 0.000655371
*CONN
*P segm[10] O
*I *1299:Z O *D gf180mcu_fd_sc_mcu7t5v0__buf_8
*CAP
1 segm[10] 0.000294374
2 *1299:Z 0.000294374
3 segm[10] sel[0] 6.66239e-05
*RES
1 *1299:Z segm[10] 11.475 
*END

*D_NET *4 0.00137325
*CONN
*P segm[11] O
*I *1305:Z O *D gf180mcu_fd_sc_mcu7t5v0__buf_8
*CAP
1 segm[11] 0.000617251
2 *1305:Z 0.000617251
3 segm[11] segm[9] 0.00013875
*RES
1 *1305:Z segm[11] 9.585 
*END

*D_NET *5 0.00118802
*CONN
*P segm[12] O
*I *1306:Z O *D gf180mcu_fd_sc_mcu7t5v0__buf_8
*CAP
1 segm[12] 0.0005326
2 *1306:Z 0.0005326
3 segm[12] sel[8] 0.000122824
*RES
1 *1306:Z segm[12] 8.865 
*END

*D_NET *6 0.000781901
*CONN
*P segm[13] O
*I *1307:Z O *D gf180mcu_fd_sc_mcu7t5v0__buf_8
*CAP
1 segm[13] 0.00035621
2 *1307:Z 0.00035621
3 segm[13] sel[0] 6.94814e-05
*RES
1 *1307:Z segm[13] 11.835 
*END

*D_NET *7 0.000399217
*CONN
*P segm[1] O
*I *1286:ZN O *D gf180mcu_fd_sc_mcu7t5v0__tiel
*CAP
1 segm[1] 0.000199609
2 *1286:ZN 0.000199609
*RES
1 *1286:ZN segm[1] 10.665 
*END

*D_NET *8 0.00125327
*CONN
*P segm[2] O
*I *1308:Z O *D gf180mcu_fd_sc_mcu7t5v0__buf_8
*CAP
1 segm[2] 0.000406579
2 *1308:Z 0.000406579
3 segm[2] segm[5] 0.000440113
*RES
1 *1308:Z segm[2] 12.645 
*END

*D_NET *9 0.000941763
*CONN
*P segm[3] O
*I *1309:Z O *D gf180mcu_fd_sc_mcu7t5v0__buf_8
*CAP
1 segm[3] 0.000422495
2 *1309:Z 0.000422495
3 segm[0] segm[3] 9.67726e-05
*RES
1 *1309:Z segm[3] 12.195 
*END

*D_NET *10 0.00124753
*CONN
*P segm[4] O