*SPEF "ieee 1481-1999"
*DESIGN "ita40"
*DATE "11:11:11 Fri 11 11, 1111"
*VENDOR "OpenRCX"
*PROGRAM "Parallel Extraction"
*VERSION "1.0"
*DESIGN_FLOW "NAME_SCOPE LOCAL" "PIN_CAP NONE"
*DIVIDER /
*DELIMITER :
*BUS_DELIMITER []
*T_UNIT 1 NS
*C_UNIT 1 PF
*R_UNIT 1 OHM
*L_UNIT 1 HENRY

*NAME_MAP
*1 clk
*2 net25
*3 segm[10]
*4 segm[11]
*5 segm[12]
*6 segm[13]
*7 segm[1]
*8 segm[2]
*9 net26
*10 segm[4]
*11 segm[5]
*12 segm[6]
*13 segm[7]
*14 segm[8]
*15 segm[9]
*16 sel[0]
*17 sel[10]
*18 sel[11]
*19 sel[1]
*20 sel[2]
*21 sel[3]
*22 sel[4]
*23 sel[5]
*24 sel[6]
*25 sel[7]
*26 sel[8]
*27 sel[9]
*30 _000_
*31 _001_
*32 _002_
*33 _003_
*34 _004_
*35 _005_
*36 _006_
*37 _007_
*38 _008_
*39 _009_
*40 _010_
*41 _011_
*42 _012_
*43 _013_
*44 _014_
*45 _015_
*46 _016_
*47 _017_
*48 _018_
*49 _019_
*50 _020_
*51 _021_
*52 _022_
*53 _023_
*54 _024_
*55 _025_
*56 _026_
*57 _027_
*58 _028_
*59 _029_
*60 _030_
*61 _031_
*62 _032_
*63 _033_
*64 _034_
*65 _035_
*66 _036_
*67 _037_
*68 _038_
*69 _039_
*70 _040_
*71 _041_
*72 _042_
*73 _043_
*74 _044_
*75 _045_
*76 _046_
*77 _047_
*78 _048_
*79 _049_
*80 _050_
*81 _051_
*82 _052_
*83 _053_
*84 _054_
*85 _055_
*86 _056_
*87 _057_
*88 _058_
*89 _059_
*90 _060_
*91 _061_
*92 _062_
*93 _063_
*94 _064_
*95 _065_
*96 _066_
*97 _067_
*98 _068_
*99 _069_
*100 _070_
*101 _071_
*102 _072_
*103 _073_
*104 _074_
*105 _075_
*106 _076_
*107 _077_
*108 _078_
*109 _079_
*110 _080_
*111 _081_
*112 _082_
*113 _083_
*114 _084_
*115 _085_
*116 _086_
*117 _087_
*118 _088_
*119 _089_
*120 _090_
*121 _091_
*122 _092_
*123 _093_
*124 _094_
*125 _095_
*126 _096_
*127 _097_
*128 _098_
*129 _099_
*130 _100_
*131 _101_
*132 _102_
*133 clknet_0_clk
*134 clknet_1_0__leaf_clk
*135 clknet_1_1__leaf_clk
*136 dut40\.count\[0\]
*137 dut40\.count\[1\]
*138 dut40\.count\[2\]
*139 dut40\.count\[3\]
*140 net1
*141 net10
*142 net11
*143 net12
*144 net13
*145 net14
*146 net15
*147 net16
*148 net17
*149 net18
*150 net19
*151 net2
*152 net20
*153 net21
*154 net22
*155 net23
*156 net24
*157 net3
*158 net4
*159 net5
*160 net6
*161 net7
*162 net8
*163 net9
*164 ANTENNA__147__B
*165 ANTENNA__162__A2
*166 ANTENNA__181__B
*167 ANTENNA__197__A2
*168 ANTENNA__206__CLK
*169 ANTENNA__207__CLK
*170 ANTENNA__208__CLK
*171 ANTENNA__209__CLK
*172 ANTENNA__210__CLK
*173 ANTENNA__211__CLK
*174 ANTENNA__212__CLK
*175 ANTENNA__213__CLK
*176 ANTENNA__214__CLK
*177 ANTENNA__215__CLK
*178 ANTENNA__216__CLK
*179 ANTENNA__217__CLK
*180 ANTENNA__218__CLK
*181 ANTENNA__219__CLK
*182 ANTENNA__220__CLK
*183 ANTENNA__221__CLK
*184 ANTENNA__222__CLK
*185 ANTENNA__223__CLK
*186 ANTENNA__224__CLK
*187 ANTENNA__225__CLK
*188 ANTENNA__226__CLK
*189 ANTENNA__227__CLK
*190 ANTENNA__228__CLK
*191 ANTENNA_clkbuf_0_clk_I
*192 FILLER_0_0_104
*193 FILLER_0_0_138
*194 FILLER_0_0_165
*195 FILLER_0_0_169
*196 FILLER_0_0_172
*197 FILLER_0_0_174
*198 FILLER_0_0_2
*199 FILLER_0_0_201
*200 FILLER_0_0_203
*201 FILLER_0_0_232
*202 FILLER_0_0_236
*203 FILLER_0_0_266
*204 FILLER_0_0_270
*205 FILLER_0_0_274
*206 FILLER_0_0_308
*207 FILLER_0_0_342
*208 FILLER_0_0_346
*209 FILLER_0_0_348
*210 FILLER_0_0_36
*211 FILLER_0_0_70
*212 FILLER_0_10_101
*213 FILLER_0_10_107
*214 FILLER_0_10_171
*215 FILLER_0_10_177
*216 FILLER_0_10_2
*217 FILLER_0_10_241
*218 FILLER_0_10_247
*219 FILLER_0_10_311
*220 FILLER_0_10_317
*221 FILLER_0_10_34
*222 FILLER_0_10_37
*223 FILLER_0_11_136
*224 FILLER_0_11_142
*225 FILLER_0_11_2
*226 FILLER_0_11_206
*227 FILLER_0_11_212
*228 FILLER_0_11_276
*229 FILLER_0_11_282
*230 FILLER_0_11_314
*231 FILLER_0_11_330
*232 FILLER_0_11_338
*233 FILLER_0_11_342
*234 FILLER_0_11_344
*235 FILLER_0_11_66
*236 FILLER_0_11_72
*237 FILLER_0_12_101
*238 FILLER_0_12_107
*239 FILLER_0_12_139
*240 FILLER_0_12_142
*241 FILLER_0_12_148
*242 FILLER_0_12_164
*243 FILLER_0_12_166
*244 FILLER_0_12_171
*245 FILLER_0_12_177
*246 FILLER_0_12_193
*247 FILLER_0_12_197
*248 FILLER_0_12_199
*249 FILLER_0_12_2
*250 FILLER_0_12_206
*251 FILLER_0_12_238
*252 FILLER_0_12_242
*253 FILLER_0_12_244
*254 FILLER_0_12_247
*255 FILLER_0_12_311
*256 FILLER_0_12_317
*257 FILLER_0_12_34
*258 FILLER_0_12_37
*259 FILLER_0_13_104
*260 FILLER_0_13_108
*261 FILLER_0_13_110
*262 FILLER_0_13_146
*263 FILLER_0_13_177
*264 FILLER_0_13_2
*265 FILLER_0_13_212
*266 FILLER_0_13_216
*267 FILLER_0_13_282
*268 FILLER_0_13_346
*269 FILLER_0_13_348
*270 FILLER_0_13_66
*271 FILLER_0_13_72
*272 FILLER_0_14_101
*273 FILLER_0_14_177
*274 FILLER_0_14_192
*275 FILLER_0_14_2
*276 FILLER_0_14_206
*277 FILLER_0_14_238
*278 FILLER_0_14_242
*279 FILLER_0_14_244
*280 FILLER_0_14_247
*281 FILLER_0_14_311
*282 FILLER_0_14_317
*283 FILLER_0_14_34
*284 FILLER_0_14_37
*285 FILLER_0_15_104
*286 FILLER_0_15_112
*287 FILLER_0_15_118
*288 FILLER_0_15_132
*289 FILLER_0_15_138
*290 FILLER_0_15_142
*291 FILLER_0_15_146
*292 FILLER_0_15_154
*293 FILLER_0_15_156
*294 FILLER_0_15_175
*295 FILLER_0_15_179
*296 FILLER_0_15_187
*297 FILLER_0_15_197
*298 FILLER_0_15_2
*299 FILLER_0_15_205
*300 FILLER_0_15_209
*301 FILLER_0_15_212
*302 FILLER_0_15_276
*303 FILLER_0_15_282
*304 FILLER_0_15_346
*305 FILLER_0_15_348
*306 FILLER_0_15_66
*307 FILLER_0_15_72
*308 FILLER_0_16_101
*309 FILLER_0_16_107
*310 FILLER_0_16_117
*311 FILLER_0_16_125
*312 FILLER_0_16_129
*313 FILLER_0_16_136
*314 FILLER_0_16_144
*315 FILLER_0_16_148
*316 FILLER_0_16_150
*317 FILLER_0_16_156
*318 FILLER_0_16_166
*319 FILLER_0_16_174
*320 FILLER_0_16_177
*321 FILLER_0_16_185
*322 FILLER_0_16_189
*323 FILLER_0_16_2
*324 FILLER_0_16_220
*325 FILLER_0_16_224
*326 FILLER_0_16_240
*327 FILLER_0_16_244
*328 FILLER_0_16_247
*329 FILLER_0_16_311
*330 FILLER_0_16_317
*331 FILLER_0_16_34
*332 FILLER_0_16_37
*333 FILLER_0_17_123
*334 FILLER_0_17_127
*335 FILLER_0_17_135
*336 FILLER_0_17_139
*337 FILLER_0_17_142
*338 FILLER_0_17_144
*339 FILLER_0_17_176
*340 FILLER_0_17_192
*341 FILLER_0_17_194
*342 FILLER_0_17_2
*343 FILLER_0_17_209
*344 FILLER_0_17_212
*345 FILLER_0_17_276
*346 FILLER_0_17_282
*347 FILLER_0_17_346
*348 FILLER_0_17_348
*349 FILLER_0_17_66
*350 FILLER_0_17_72
*351 FILLER_0_17_80
*352 FILLER_0_17_84
*353 FILLER_0_18_101
*354 FILLER_0_18_107
*355 FILLER_0_18_111
*356 FILLER_0_18_119
*357 FILLER_0_18_135
*358 FILLER_0_18_139
*359 FILLER_0_18_141
*360 FILLER_0_18_148
*361 FILLER_0_18_156
*362 FILLER_0_18_189
*363 FILLER_0_18_193
*364 FILLER_0_18_223
*365 FILLER_0_18_227
*366 FILLER_0_18_243
*367 FILLER_0_18_247
*368 FILLER_0_18_28
*369 FILLER_0_18_311
*370 FILLER_0_18_317
*371 FILLER_0_18_32
*372 FILLER_0_18_34
*373 FILLER_0_18_37
*374 FILLER_0_19_104
*375 FILLER_0_19_108
*376 FILLER_0_19_138
*377 FILLER_0_19_142
*378 FILLER_0_19_146
*379 FILLER_0_19_154
*380 FILLER_0_19_156
*381 FILLER_0_19_165
*382 FILLER_0_19_181
*383 FILLER_0_19_197
*384 FILLER_0_19_206
*385 FILLER_0_19_212
*386 FILLER_0_19_228
*387 FILLER_0_19_240
*388 FILLER_0_19_272
*389 FILLER_0_19_28
*390 FILLER_0_19_282
*391 FILLER_0_19_314
*392 FILLER_0_19_322
*393 FILLER_0_19_60
*394 FILLER_0_19_68
*395 FILLER_0_19_72
*396 FILLER_0_19_88
*397 FILLER_0_19_96
*398 FILLER_0_1_136
*399 FILLER_0_1_142
*400 FILLER_0_1_158
*401 FILLER_0_1_166
*402 FILLER_0_1_168
*403 FILLER_0_1_195
*404 FILLER_0_1_2
*405 FILLER_0_1_203
*406 FILLER_0_1_207
*407 FILLER_0_1_209
*408 FILLER_0_1_238
*409 FILLER_0_1_270
*410 FILLER_0_1_278
*411 FILLER_0_1_282
*412 FILLER_0_1_346
*413 FILLER_0_1_348
*414 FILLER_0_1_66
*415 FILLER_0_1_72
*416 FILLER_0_20_113
*417 FILLER_0_20_117
*418 FILLER_0_20_177
*419 FILLER_0_20_181
*420 FILLER_0_20_188
*421 FILLER_0_20_196
*422 FILLER_0_20_200
*423 FILLER_0_20_210
*424 FILLER_0_20_247
*425 FILLER_0_20_28
*426 FILLER_0_20_311
*427 FILLER_0_20_317
*428 FILLER_0_20_32
*429 FILLER_0_20_34
*430 FILLER_0_20_37
*431 FILLER_0_20_69
*432 FILLER_0_20_73
*433 FILLER_0_21_104
*434 FILLER_0_21_107
*435 FILLER_0_21_129
*436 FILLER_0_21_142
*437 FILLER_0_21_150
*438 FILLER_0_21_154
*439 FILLER_0_21_185
*440 FILLER_0_21_196
*441 FILLER_0_21_198
*442 FILLER_0_21_212
*443 FILLER_0_21_245
*444 FILLER_0_21_277
*445 FILLER_0_21_279
*446 FILLER_0_21_28
*447 FILLER_0_21_282
*448 FILLER_0_21_314
*449 FILLER_0_21_322
*450 FILLER_0_21_60
*451 FILLER_0_21_68
*452 FILLER_0_21_72
*453 FILLER_0_21_88
*454 FILLER_0_21_96
*455 FILLER_0_22_101
*456 FILLER_0_22_107
*457 FILLER_0_22_115
*458 FILLER_0_22_117
*459 FILLER_0_22_124
*460 FILLER_0_22_132
*461 FILLER_0_22_136
*462 FILLER_0_22_146
*463 FILLER_0_22_177
*464 FILLER_0_22_179
*465 FILLER_0_22_230
*466 FILLER_0_22_238
*467 FILLER_0_22_242
*468 FILLER_0_22_244
*469 FILLER_0_22_247
*470 FILLER_0_22_28
*471 FILLER_0_22_311
*472 FILLER_0_22_317
*473 FILLER_0_22_32
*474 FILLER_0_22_34
*475 FILLER_0_22_37
*476 FILLER_0_23_104
*477 FILLER_0_23_107
*478 FILLER_0_23_111
*479 FILLER_0_23_137
*480 FILLER_0_23_139
*481 FILLER_0_23_142
*482 FILLER_0_23_146
*483 FILLER_0_23_2
*484 FILLER_0_23_209
*485 FILLER_0_23_225
*486 FILLER_0_23_257
*487 FILLER_0_23_273
*488 FILLER_0_23_277
*489 FILLER_0_23_279
*490 FILLER_0_23_282
*491 FILLER_0_23_314
*492 FILLER_0_23_322
*493 FILLER_0_23_66
*494 FILLER_0_23_72
*495 FILLER_0_24_107
*496 FILLER_0_24_114
*497 FILLER_0_24_118
*498 FILLER_0_24_126
*499 FILLER_0_24_128
*500 FILLER_0_24_146
*501 FILLER_0_24_173
*502 FILLER_0_24_185
*503 FILLER_0_24_187
*504 FILLER_0_24_2
*505 FILLER_0_24_229
*506 FILLER_0_24_247
*507 FILLER_0_24_311
*508 FILLER_0_24_317
*509 FILLER_0_24_34
*510 FILLER_0_24_37
*511 FILLER_0_24_69
*512 FILLER_0_24_73
*513 FILLER_0_24_75
*514 FILLER_0_25_125
*515 FILLER_0_25_129
*516 FILLER_0_25_131
*517 FILLER_0_25_138
*518 FILLER_0_25_142
*519 FILLER_0_25_159
*520 FILLER_0_25_172
*521 FILLER_0_25_176
*522 FILLER_0_25_183
*523 FILLER_0_25_191
*524 FILLER_0_25_198
*525 FILLER_0_25_2
*526 FILLER_0_25_212
*527 FILLER_0_25_216
*528 FILLER_0_25_247
*529 FILLER_0_25_279
*530 FILLER_0_25_282
*531 FILLER_0_25_314
*532 FILLER_0_25_322
*533 FILLER_0_25_66
*534 FILLER_0_25_72
*535 FILLER_0_25_80
*536 FILLER_0_26_101
*537 FILLER_0_26_107
*538 FILLER_0_26_114
*539 FILLER_0_26_146
*540 FILLER_0_26_160
*541 FILLER_0_26_167
*542 FILLER_0_26_174
*543 FILLER_0_26_177
*544 FILLER_0_26_193
*545 FILLER_0_26_195
*546 FILLER_0_26_2
*547 FILLER_0_26_202
*548 FILLER_0_26_206
*549 FILLER_0_26_247
*550 FILLER_0_26_311
*551 FILLER_0_26_317
*552 FILLER_0_26_321
*553 FILLER_0_26_34
*554 FILLER_0_26_37
*555 FILLER_0_27_104
*556 FILLER_0_27_120
*557 FILLER_0_27_122
*558 FILLER_0_27_129
*559 FILLER_0_27_139
*560 FILLER_0_27_150
*561 FILLER_0_27_154
*562 FILLER_0_27_156
*563 FILLER_0_27_161
*564 FILLER_0_27_177
*565 FILLER_0_27_185
*566 FILLER_0_27_192
*567 FILLER_0_27_2
*568 FILLER_0_27_208
*569 FILLER_0_27_212
*570 FILLER_0_27_218
*571 FILLER_0_27_250
*572 FILLER_0_27_266
*573 FILLER_0_27_274
*574 FILLER_0_27_278
*575 FILLER_0_27_282
*576 FILLER_0_27_346
*577 FILLER_0_27_348
*578 FILLER_0_27_66
*579 FILLER_0_27_72
*580 FILLER_0_28_101
*581 FILLER_0_28_107
*582 FILLER_0_28_137
*583 FILLER_0_28_149
*584 FILLER_0_28_157
*585 FILLER_0_28_171
*586 FILLER_0_28_177
*587 FILLER_0_28_181
*588 FILLER_0_28_197
*589 FILLER_0_28_2
*590 FILLER_0_28_205
*591 FILLER_0_28_207
*592 FILLER_0_28_217
*593 FILLER_0_28_233
*594 FILLER_0_28_241
*595 FILLER_0_28_247
*596 FILLER_0_28_311
*597 FILLER_0_28_317
*598 FILLER_0_28_34
*599 FILLER_0_28_37
*600 FILLER_0_29_129
*601 FILLER_0_29_135
*602 FILLER_0_29_139
*603 FILLER_0_29_142
*604 FILLER_0_29_150
*605 FILLER_0_29_154
*606 FILLER_0_29_179
*607 FILLER_0_29_187
*608 FILLER_0_29_2
*609 FILLER_0_29_209
*610 FILLER_0_29_212
*611 FILLER_0_29_216
*612 FILLER_0_29_228
*613 FILLER_0_29_238
*614 FILLER_0_29_270
*615 FILLER_0_29_278
*616 FILLER_0_29_282
*617 FILLER_0_29_314
*618 FILLER_0_29_322
*619 FILLER_0_29_66
*620 FILLER_0_29_72
*621 FILLER_0_29_88
*622 FILLER_0_29_96
*623 FILLER_0_2_101
*624 FILLER_0_2_107
*625 FILLER_0_2_123
*626 FILLER_0_2_153
*627 FILLER_0_2_169
*628 FILLER_0_2_173
*629 FILLER_0_2_177
*630 FILLER_0_2_193
*631 FILLER_0_2_197
*632 FILLER_0_2_2
*633 FILLER_0_2_225
*634 FILLER_0_2_241
*635 FILLER_0_2_247
*636 FILLER_0_2_311
*637 FILLER_0_2_317
*638 FILLER_0_2_34
*639 FILLER_0_2_37
*640 FILLER_0_30_101
*641 FILLER_0_30_107
*642 FILLER_0_30_115
*643 FILLER_0_30_125
*644 FILLER_0_30_131
*645 FILLER_0_30_135
*646 FILLER_0_30_137
*647 FILLER_0_30_185
*648 FILLER_0_30_247
*649 FILLER_0_30_28
*650 FILLER_0_30_311
*651 FILLER_0_30_317
*652 FILLER_0_30_32
*653 FILLER_0_30_321
*654 FILLER_0_30_34
*655 FILLER_0_30_37
*656 FILLER_0_31_136
*657 FILLER_0_31_142
*658 FILLER_0_31_150
*659 FILLER_0_31_180
*660 FILLER_0_31_184
*661 FILLER_0_31_2
*662 FILLER_0_31_200
*663 FILLER_0_31_208
*664 FILLER_0_31_212
*665 FILLER_0_31_218
*666 FILLER_0_31_250
*667 FILLER_0_31_266
*668 FILLER_0_31_274
*669 FILLER_0_31_278
*670 FILLER_0_31_282
*671 FILLER_0_31_346
*672 FILLER_0_31_348
*673 FILLER_0_31_66
*674 FILLER_0_31_72
*675 FILLER_0_32_101
*676 FILLER_0_32_107
*677 FILLER_0_32_139
*678 FILLER_0_32_155
*679 FILLER_0_32_163
*680 FILLER_0_32_169
*681 FILLER_0_32_173
*682 FILLER_0_32_177
*683 FILLER_0_32_2
*684 FILLER_0_32_241
*685 FILLER_0_32_247
*686 FILLER_0_32_311
*687 FILLER_0_32_317
*688 FILLER_0_32_34
*689 FILLER_0_32_37
*690 FILLER_0_33_136
*691 FILLER_0_33_142
*692 FILLER_0_33_2
*693 FILLER_0_33_206
*694 FILLER_0_33_212
*695 FILLER_0_33_276
*696 FILLER_0_33_282
*697 FILLER_0_33_346
*698 FILLER_0_33_348
*699 FILLER_0_33_66
*700 FILLER_0_33_72
*701 FILLER_0_34_101
*702 FILLER_0_34_107
*703 FILLER_0_34_171
*704 FILLER_0_34_177
*705 FILLER_0_34_2
*706 FILLER_0_34_241
*707 FILLER_0_34_247
*708 FILLER_0_34_311
*709 FILLER_0_34_317
*710 FILLER_0_34_34
*711 FILLER_0_34_37
*712 FILLER_0_35_136
*713 FILLER_0_35_142
*714 FILLER_0_35_2
*715 FILLER_0_35_206
*716 FILLER_0_35_212
*717 FILLER_0_35_276
*718 FILLER_0_35_282
*719 FILLER_0_35_346
*720 FILLER_0_35_348
*721 FILLER_0_35_66
*722 FILLER_0_35_72
*723 FILLER_0_36_101
*724 FILLER_0_36_107
*725 FILLER_0_36_171
*726 FILLER_0_36_177
*727 FILLER_0_36_2
*728 FILLER_0_36_241
*729 FILLER_0_36_247
*730 FILLER_0_36_311
*731 FILLER_0_36_317
*732 FILLER_0_36_34
*733 FILLER_0_36_37
*734 FILLER_0_37_136
*735 FILLER_0_37_142
*736 FILLER_0_37_2
*737 FILLER_0_37_206
*738 FILLER_0_37_212
*739 FILLER_0_37_276
*740 FILLER_0_37_282
*741 FILLER_0_37_346
*742 FILLER_0_37_348
*743 FILLER_0_37_66
*744 FILLER_0_37_72
*745 FILLER_0_38_101
*746 FILLER_0_38_107
*747 FILLER_0_38_171
*748 FILLER_0_38_177
*749 FILLER_0_38_2
*750 FILLER_0_38_241
*751 FILLER_0_38_247
*752 FILLER_0_38_311
*753 FILLER_0_38_317
*754 FILLER_0_38_34
*755 FILLER_0_38_37
*756 FILLER_0_39_136
*757 FILLER_0_39_142
*758 FILLER_0_39_2
*759 FILLER_0_39_206
*760 FILLER_0_39_212
*761 FILLER_0_39_276
*762 FILLER_0_39_282
*763 FILLER_0_39_346
*764 FILLER_0_39_348
*765 FILLER_0_39_66
*766 FILLER_0_39_72
*767 FILLER_0_3_136
*768 FILLER_0_3_142
*769 FILLER_0_3_2
*770 FILLER_0_3_206
*771 FILLER_0_3_212
*772 FILLER_0_3_276
*773 FILLER_0_3_282
*774 FILLER_0_3_346
*775 FILLER_0_3_348
*776 FILLER_0_3_66
*777 FILLER_0_3_72
*778 FILLER_0_40_101
*779 FILLER_0_40_107
*780 FILLER_0_40_171
*781 FILLER_0_40_177
*782 FILLER_0_40_2
*783 FILLER_0_40_241
*784 FILLER_0_40_247
*785 FILLER_0_40_311
*786 FILLER_0_40_317
*787 FILLER_0_40_34
*788 FILLER_0_40_37
*789 FILLER_0_41_136
*790 FILLER_0_41_142
*791 FILLER_0_41_2
*792 FILLER_0_41_206
*793 FILLER_0_41_212
*794 FILLER_0_41_276
*795 FILLER_0_41_282
*796 FILLER_0_41_346
*797 FILLER_0_41_348
*798 FILLER_0_41_66
*799 FILLER_0_41_72
*800 FILLER_0_42_101
*801 FILLER_0_42_107
*802 FILLER_0_42_171
*803 FILLER_0_42_177
*804 FILLER_0_42_2
*805 FILLER_0_42_241
*806 FILLER_0_42_247
*807 FILLER_0_42_311
*808 FILLER_0_42_317
*809 FILLER_0_42_34
*810 FILLER_0_42_37
*811 FILLER_0_43_136
*812 FILLER_0_43_142
*813 FILLER_0_43_158
*814 FILLER_0_43_162
*815 FILLER_0_43_189
*816 FILLER_0_43_2
*817 FILLER_0_43_205
*818 FILLER_0_43_209
*819 FILLER_0_43_212
*820 FILLER_0_43_276
*821 FILLER_0_43_282
*822 FILLER_0_43_346
*823 FILLER_0_43_348
*824 FILLER_0_43_66
*825 FILLER_0_43_72
*826 FILLER_0_44_104
*827 FILLER_0_44_138
*828 FILLER_0_44_172
*829 FILLER_0_44_174
*830 FILLER_0_44_2
*831 FILLER_0_44_201
*832 FILLER_0_44_203
*833 FILLER_0_44_206
*834 FILLER_0_44_210
*835 FILLER_0_44_237
*836 FILLER_0_44_240
*837 FILLER_0_44_244
*838 FILLER_0_44_246
*839 FILLER_0_44_251
*840 FILLER_0_44_267
*841 FILLER_0_44_271
*842 FILLER_0_44_274
*843 FILLER_0_44_308
*844 FILLER_0_44_342
*845 FILLER_0_44_346
*846 FILLER_0_44_348
*847 FILLER_0_44_36
*848 FILLER_0_44_70
*849 FILLER_0_4_101
*850 FILLER_0_4_107
*851 FILLER_0_4_171
*852 FILLER_0_4_177
*853 FILLER_0_4_2
*854 FILLER_0_4_241
*855 FILLER_0_4_247
*856 FILLER_0_4_311
*857 FILLER_0_4_317
*858 FILLER_0_4_34
*859 FILLER_0_4_37
*860 FILLER_0_5_136
*861 FILLER_0_5_142
*862 FILLER_0_5_2
*863 FILLER_0_5_206
*864 FILLER_0_5_212
*865 FILLER_0_5_276
*866 FILLER_0_5_282
*867 FILLER_0_5_346
*868 FILLER_0_5_348
*869 FILLER_0_5_66
*870 FILLER_0_5_72
*871 FILLER_0_6_101
*872 FILLER_0_6_107
*873 FILLER_0_6_171
*874 FILLER_0_6_177
*875 FILLER_0_6_2
*876 FILLER_0_6_241
*877 FILLER_0_6_247
*878 FILLER_0_6_311
*879 FILLER_0_6_317
*880 FILLER_0_6_34
*881 FILLER_0_6_37
*882 FILLER_0_7_136
*883 FILLER_0_7_142
*884 FILLER_0_7_2
*885 FILLER_0_7_206
*886 FILLER_0_7_212
*887 FILLER_0_7_276
*888 FILLER_0_7_282
*889 FILLER_0_7_346
*890 FILLER_0_7_348
*891 FILLER_0_7_66
*892 FILLER_0_7_72
*893 FILLER_0_8_101
*894 FILLER_0_8_107
*895 FILLER_0_8_171
*896 FILLER_0_8_177
*897 FILLER_0_8_2
*898 FILLER_0_8_241
*899 FILLER_0_8_247
*900 FILLER_0_8_311
*901 FILLER_0_8_317
*902 FILLER_0_8_34
*903 FILLER_0_8_37
*904 FILLER_0_9_136
*905 FILLER_0_9_142
*906 FILLER_0_9_2
*907 FILLER_0_9_206
*908 FILLER_0_9_212
*909 FILLER_0_9_276
*910 FILLER_0_9_282
*911 FILLER_0_9_346
*912 FILLER_0_9_348
*913 FILLER_0_9_66
*914 FILLER_0_9_72
*915 PHY_EDGE_ROW_0_Left_45
*916 PHY_EDGE_ROW_0_Right_0
*917 PHY_EDGE_ROW_10_Left_55
*918 PHY_EDGE_ROW_10_Right_10
*919 PHY_EDGE_ROW_11_Left_56
*920 PHY_EDGE_ROW_11_Right_11
*921 PHY_EDGE_ROW_12_Left_57
*922 PHY_EDGE_ROW_12_Right_12
*923 PHY_EDGE_ROW_13_Left_58
*924 PHY_EDGE_ROW_13_Right_13
*925 PHY_EDGE_ROW_14_Left_59
*926 PHY_EDGE_ROW_14_Right_14
*927 PHY_EDGE_ROW_15_Left_60
*928 PHY_EDGE_ROW_15_Right_15
*929 PHY_EDGE_ROW_16_Left_61
*930 PHY_EDGE_ROW_16_Right_16
*931 PHY_EDGE_ROW_17_Left_62
*932 PHY_EDGE_ROW_17_Right_17
*933 PHY_EDGE_ROW_18_Left_63
*934 PHY_EDGE_ROW_18_Right_18
*935 PHY_EDGE_ROW_19_Left_64
*936 PHY_EDGE_ROW_19_Right_19
*937 PHY_EDGE_ROW_1_Left_46
*938 PHY_EDGE_ROW_1_Right_1
*939 PHY_EDGE_ROW_20_Left_65
*940 PHY_EDGE_ROW_20_Right_20
*941 PHY_EDGE_ROW_21_Left_66
*942 PHY_EDGE_ROW_21_Right_21
*943 PHY_EDGE_ROW_22_Left_67
*944 PHY_EDGE_ROW_22_Right_22
*945 PHY_EDGE_ROW_23_Left_68
*946 PHY_EDGE_ROW_23_Right_23
*947 PHY_EDGE_ROW_24_Left_69
*948 PHY_EDGE_ROW_24_Right_24
*949 PHY_EDGE_ROW_25_Left_70
*950 PHY_EDGE_ROW_25_Right_25
*951 PHY_EDGE_ROW_26_Left_71
*952 PHY_EDGE_ROW_26_Right_26
*953 PHY_EDGE_ROW_27_Left_72
*954 PHY_EDGE_ROW_27_Right_27
*955 PHY_EDGE_ROW_28_Left_73
*956 PHY_EDGE_ROW_28_Right_28
*957 PHY_EDGE_ROW_29_Left_74
*958 PHY_EDGE_ROW_29_Right_29
*959 PHY_EDGE_ROW_2_Left_47
*960 PHY_EDGE_ROW_2_Right_2
*961 PHY_EDGE_ROW_30_Left_75
*962 PHY_EDGE_ROW_30_Right_30
*963 PHY_EDGE_ROW_31_Left_76
*964 PHY_EDGE_ROW_31_Right_31
*965 PHY_EDGE_ROW_32_Left_77
*966 PHY_EDGE_ROW_32_Right_32
*967 PHY_EDGE_ROW_33_Left_78
*968 PHY_EDGE_ROW_33_Right_33
*969 PHY_EDGE_ROW_34_Left_79
*970 PHY_EDGE_ROW_34_Right_34
*971 PHY_EDGE_ROW_35_Left_80
*972 PHY_EDGE_ROW_35_Right_35
*973 PHY_EDGE_ROW_36_Left_81
*974 PHY_EDGE_ROW_36_Right_36
*975 PHY_EDGE_ROW_37_Left_82
*976 PHY_EDGE_ROW_37_Right_37
*977 PHY_EDGE_ROW_38_Left_83
*978 PHY_EDGE_ROW_38_Right_38
*979 PHY_EDGE_ROW_39_Left_84
*980 PHY_EDGE_ROW_39_Right_39
*981 PHY_EDGE_ROW_3_Left_48
*982 PHY_EDGE_ROW_3_Right_3
*983 PHY_EDGE_ROW_40_Left_85
*984 PHY_EDGE_ROW_40_Right_40
*985 PHY_EDGE_ROW_41_Left_86
*986 PHY_EDGE_ROW_41_Right_41
*987 PHY_EDGE_ROW_42_Left_87
*988 PHY_EDGE_ROW_42_Right_42
*989 PHY_EDGE_ROW_43_Left_88
*990 PHY_EDGE_ROW_43_Right_43
*991 PHY_EDGE_ROW_44_Left_89
*992 PHY_EDGE_ROW_44_Right_44
*993 PHY_EDGE_ROW_4_Left_49
*994 PHY_EDGE_ROW_4_Right_4
*995 PHY_EDGE_ROW_5_Left_50
*996 PHY_EDGE_ROW_5_Right_5
*997 PHY_EDGE_ROW_6_Left_51
*998 PHY_EDGE_ROW_6_Right_6
*999 PHY_EDGE_ROW_7_Left_52
*1000 PHY_EDGE_ROW_7_Right_7
*1001 PHY_EDGE_ROW_8_Left_53
*1002 PHY_EDGE_ROW_8_Right_8
*1003 PHY_EDGE_ROW_9_Left_54
*1004 PHY_EDGE_ROW_9_Right_9
*1005 TAP_TAPCELL_ROW_0_90
*1006 TAP_TAPCELL_ROW_0_91
*1007 TAP_TAPCELL_ROW_0_92
*1008 TAP_TAPCELL_ROW_0_93
*1009 TAP_TAPCELL_ROW_0_94
*1010 TAP_TAPCELL_ROW_0_95
*1011 TAP_TAPCELL_ROW_0_96
*1012 TAP_TAPCELL_ROW_0_97
*1013 TAP_TAPCELL_ROW_0_98
*1014 TAP_TAPCELL_ROW_0_99
*1015 TAP_TAPCELL_ROW_10_140
*1016 TAP_TAPCELL_ROW_10_141
*1017 TAP_TAPCELL_ROW_10_142
*1018 TAP_TAPCELL_ROW_10_143
*1019 TAP_TAPCELL_ROW_10_144
*1020 TAP_TAPCELL_ROW_11_145
*1021 TAP_TAPCELL_ROW_11_146
*1022 TAP_TAPCELL_ROW_11_147
*1023 TAP_TAPCELL_ROW_11_148
*1024 TAP_TAPCELL_ROW_12_149
*1025 TAP_TAPCELL_ROW_12_150
*1026 TAP_TAPCELL_ROW_12_151
*1027 TAP_TAPCELL_ROW_12_152
*1028 TAP_TAPCELL_ROW_12_153
*1029 TAP_TAPCELL_ROW_13_154
*1030 TAP_TAPCELL_ROW_13_155
*1031 TAP_TAPCELL_ROW_13_156
*1032 TAP_TAPCELL_ROW_13_157
*1033 TAP_TAPCELL_ROW_14_158
*1034 TAP_TAPCELL_ROW_14_159
*1035 TAP_TAPCELL_ROW_14_160
*1036 TAP_TAPCELL_ROW_14_161
*1037 TAP_TAPCELL_ROW_14_162
*1038 TAP_TAPCELL_ROW_15_163
*1039 TAP_TAPCELL_ROW_15_164
*1040 TAP_TAPCELL_ROW_15_165
*1041 TAP_TAPCELL_ROW_15_166
*1042 TAP_TAPCELL_ROW_16_167
*1043 TAP_TAPCELL_ROW_16_168
*1044 TAP_TAPCELL_ROW_16_169
*1045 TAP_TAPCELL_ROW_16_170
*1046 TAP_TAPCELL_ROW_16_171
*1047 TAP_TAPCELL_ROW_17_172
*1048 TAP_TAPCELL_ROW_17_173
*1049 TAP_TAPCELL_ROW_17_174
*1050 TAP_TAPCELL_ROW_17_175
*1051 TAP_TAPCELL_ROW_18_176
*1052 TAP_TAPCELL_ROW_18_177
*1053 TAP_TAPCELL_ROW_18_178
*1054 TAP_TAPCELL_ROW_18_179
*1055 TAP_TAPCELL_ROW_18_180
*1056 TAP_TAPCELL_ROW_19_181
*1057 TAP_TAPCELL_ROW_19_182
*1058 TAP_TAPCELL_ROW_19_183
*1059 TAP_TAPCELL_ROW_19_184
*1060 TAP_TAPCELL_ROW_1_100
*1061 TAP_TAPCELL_ROW_1_101
*1062 TAP_TAPCELL_ROW_1_102
*1063 TAP_TAPCELL_ROW_1_103
*1064 TAP_TAPCELL_ROW_20_185
*1065 TAP_TAPCELL_ROW_20_186
*1066 TAP_TAPCELL_ROW_20_187
*1067 TAP_TAPCELL_ROW_20_188
*1068 TAP_TAPCELL_ROW_20_189
*1069 TAP_TAPCELL_ROW_21_190
*1070 TAP_TAPCELL_ROW_21_191
*1071 TAP_TAPCELL_ROW_21_192
*1072 TAP_TAPCELL_ROW_21_193
*1073 TAP_TAPCELL_ROW_22_194
*1074 TAP_TAPCELL_ROW_22_195
*1075 TAP_TAPCELL_ROW_22_196
*1076 TAP_TAPCELL_ROW_22_197
*1077 TAP_TAPCELL_ROW_22_198
*1078 TAP_TAPCELL_ROW_23_199
*1079 TAP_TAPCELL_ROW_23_200
*1080 TAP_TAPCELL_ROW_23_201
*1081 TAP_TAPCELL_ROW_23_202
*1082 TAP_TAPCELL_ROW_24_203
*1083 TAP_TAPCELL_ROW_24_204
*1084 TAP_TAPCELL_ROW_24_205
*1085 TAP_TAPCELL_ROW_24_206
*1086 TAP_TAPCELL_ROW_24_207
*1087 TAP_TAPCELL_ROW_25_208
*1088 TAP_TAPCELL_ROW_25_209
*1089 TAP_TAPCELL_ROW_25_210
*1090 TAP_TAPCELL_ROW_25_211
*1091 TAP_TAPCELL_ROW_26_212
*1092 TAP_TAPCELL_ROW_26_213
*1093 TAP_TAPCELL_ROW_26_214
*1094 TAP_TAPCELL_ROW_26_215
*1095 TAP_TAPCELL_ROW_26_216
*1096 TAP_TAPCELL_ROW_27_217
*1097 TAP_TAPCELL_ROW_27_218
*1098 TAP_TAPCELL_ROW_27_219
*1099 TAP_TAPCELL_ROW_27_220
*1100 TAP_TAPCELL_ROW_28_221
*1101 TAP_TAPCELL_ROW_28_222
*1102 TAP_TAPCELL_ROW_28_223
*1103 TAP_TAPCELL_ROW_28_224
*1104 TAP_TAPCELL_ROW_28_225
*1105 TAP_TAPCELL_ROW_29_226
*1106 TAP_TAPCELL_ROW_29_227
*1107 TAP_TAPCELL_ROW_29_228
*1108 TAP_TAPCELL_ROW_29_229
*1109 TAP_TAPCELL_ROW_2_104
*1110 TAP_TAPCELL_ROW_2_105
*1111 TAP_TAPCELL_ROW_2_106
*1112 TAP_TAPCELL_ROW_2_107
*1113 TAP_TAPCELL_ROW_2_108
*1114 TAP_TAPCELL_ROW_30_230
*1115 TAP_TAPCELL_ROW_30_231
*1116 TAP_TAPCELL_ROW_30_232
*1117 TAP_TAPCELL_ROW_30_233
*1118 TAP_TAPCELL_ROW_30_234
*1119 TAP_TAPCELL_ROW_31_235
*1120 TAP_TAPCELL_ROW_31_236
*1121 TAP_TAPCELL_ROW_31_237
*1122 TAP_TAPCELL_ROW_31_238
*1123 TAP_TAPCELL_ROW_32_239
*1124 TAP_TAPCELL_ROW_32_240
*1125 TAP_TAPCELL_ROW_32_241
*1126 TAP_TAPCELL_ROW_32_242
*1127 TAP_TAPCELL_ROW_32_243
*1128 TAP_TAPCELL_ROW_33_244
*1129 TAP_TAPCELL_ROW_33_245
*1130 TAP_TAPCELL_ROW_33_246
*1131 TAP_TAPCELL_ROW_33_247
*1132 TAP_TAPCELL_ROW_34_248
*1133 TAP_TAPCELL_ROW_34_249
*1134 TAP_TAPCELL_ROW_34_250
*1135 TAP_TAPCELL_ROW_34_251
*1136 TAP_TAPCELL_ROW_34_252
*1137 TAP_TAPCELL_ROW_35_253
*1138 TAP_TAPCELL_ROW_35_254
*1139 TAP_TAPCELL_ROW_35_255
*1140 TAP_TAPCELL_ROW_35_256
*1141 TAP_TAPCELL_ROW_36_257
*1142 TAP_TAPCELL_ROW_36_258
*1143 TAP_TAPCELL_ROW_36_259
*1144 TAP_TAPCELL_ROW_36_260
*1145 TAP_TAPCELL_ROW_36_261
*1146 TAP_TAPCELL_ROW_37_262
*1147 TAP_TAPCELL_ROW_37_263
*1148 TAP_TAPCELL_ROW_37_264
*1149 TAP_TAPCELL_ROW_37_265
*1150 TAP_TAPCELL_ROW_38_266
*1151 TAP_TAPCELL_ROW_38_267
*1152 TAP_TAPCELL_ROW_38_268
*1153 TAP_TAPCELL_ROW_38_269
*1154 TAP_TAPCELL_ROW_38_270
*1155 TAP_TAPCELL_ROW_39_271
*1156 TAP_TAPCELL_ROW_39_272
*1157 TAP_TAPCELL_ROW_39_273
*1158 TAP_TAPCELL_ROW_39_274
*1159 TAP_TAPCELL_ROW_3_109
*1160 TAP_TAPCELL_ROW_3_110
*1161 TAP_TAPCELL_ROW_3_111
*1162 TAP_TAPCELL_ROW_3_112
*1163 TAP_TAPCELL_ROW_40_275
*1164 TAP_TAPCELL_ROW_40_276
*1165 TAP_TAPCELL_ROW_40_277
*1166 TAP_TAPCELL_ROW_40_278
*1167 TAP_TAPCELL_ROW_40_279
*1168 TAP_TAPCELL_ROW_41_280
*1169 TAP_TAPCELL_ROW_41_281
*1170 TAP_TAPCELL_ROW_41_282
*1171 TAP_TAPCELL_ROW_41_283
*1172 TAP_TAPCELL_ROW_42_284
*1173 TAP_TAPCELL_ROW_42_285
*1174 TAP_TAPCELL_ROW_42_286
*1175 TAP_TAPCELL_ROW_42_287
*1176 TAP_TAPCELL_ROW_42_288
*1177 TAP_TAPCELL_ROW_43_289
*1178 TAP_TAPCELL_ROW_43_290
*1179 TAP_TAPCELL_ROW_43_291
*1180 TAP_TAPCELL_ROW_43_292
*1181 TAP_TAPCELL_ROW_44_293
*1182 TAP_TAPCELL_ROW_44_294
*1183 TAP_TAPCELL_ROW_44_295
*1184 TAP_TAPCELL_ROW_44_296
*1185 TAP_TAPCELL_ROW_44_297
*1186 TAP_TAPCELL_ROW_44_298
*1187 TAP_TAPCELL_ROW_44_299
*1188 TAP_TAPCELL_ROW_44_300
*1189 TAP_TAPCELL_ROW_44_301
*1190 TAP_TAPCELL_ROW_44_302
*1191 TAP_TAPCELL_ROW_4_113
*1192 TAP_TAPCELL_ROW_4_114
*1193 TAP_TAPCELL_ROW_4_115
*1194 TAP_TAPCELL_ROW_4_116
*1195 TAP_TAPCELL_ROW_4_117
*1196 TAP_TAPCELL_ROW_5_118
*1197 TAP_TAPCELL_ROW_5_119
*1198 TAP_TAPCELL_ROW_5_120
*1199 TAP_TAPCELL_ROW_5_121
*1200 TAP_TAPCELL_ROW_6_122
*1201 TAP_TAPCELL_ROW_6_123
*1202 TAP_TAPCELL_ROW_6_124
*1203 TAP_TAPCELL_ROW_6_125
*1204 TAP_TAPCELL_ROW_6_126
*1205 TAP_TAPCELL_ROW_7_127
*1206 TAP_TAPCELL_ROW_7_128
*1207 TAP_TAPCELL_ROW_7_129
*1208 TAP_TAPCELL_ROW_7_130
*1209 TAP_TAPCELL_ROW_8_131
*1210 TAP_TAPCELL_ROW_8_132
*1211 TAP_TAPCELL_ROW_8_133
*1212 TAP_TAPCELL_ROW_8_134
*1213 TAP_TAPCELL_ROW_8_135
*1214 TAP_TAPCELL_ROW_9_136
*1215 TAP_TAPCELL_ROW_9_137
*1216 TAP_TAPCELL_ROW_9_138
*1217 TAP_TAPCELL_ROW_9_139
*1218 _103_
*1219 _104_
*1220 _105_
*1221 _106_
*1222 _107_
*1223 _108_
*1224 _109_
*1225 _110_
*1226 _111_
*1227 _112_
*1228 _113_
*1229 _114_
*1230 _115_
*1231 _116_
*1232 _117_
*1233 _118_
*1234 _119_
*1235 _120_
*1236 _121_
*1237 _122_
*1238 _123_
*1239 _124_
*1240 _125_
*1241 _126_
*1242 _127_
*1243 _128_
*1244 _129_
*1245 _130_
*1246 _131_
*1247 _132_
*1248 _133_
*1249 _134_
*1250 _135_
*1251 _136_
*1252 _137_
*1253 _138_
*1254 _139_
*1255 _140_
*1256 _141_
*1257 _142_
*1258 _143_
*1259 _144_
*1260 _145_
*1261 _146_
*1262 _147_
*1263 _148_
*1264 _149_
*1265 _150_
*1266 _151_
*1267 _152_
*1268 _153_
*1269 _154_
*1270 _155_
*1271 _156_
*1272 _157_
*1273 _158_
*1274 _159_
*1275 _160_
*1276 _161_
*1277 _162_
*1278 _163_
*1279 _164_
*1280 _165_
*1281 _166_
*1282 _167_
*1283 _168_
*1284 _169_
*1285 _170_
*1286 _171_
*1287 _172_
*1288 _173_
*1289 _174_
*1290 _175_
*1291 _176_
*1292 _177_
*1293 _178_
*1294 _179_
*1295 _180_
*1296 _181_
*1297 _182_
*1298 _183_
*1299 _184_
*1300 _185_
*1301 _186_
*1302 _187_
*1303 _188_
*1304 _189_
*1305 _190_
*1306 _191_
*1307 _192_
*1308 _193_
*1309 _194_
*1310 _195_
*1311 _196_
*1312 _197_
*1313 _198_
*1314 _199_
*1315 _200_
*1316 _201_
*1317 _202_
*1318 _203_
*1319 _204_
*1320 _205_
*1321 _206_
*1322 _207_
*1323 _208_
*1324 _209_
*1325 _210_
*1326 _211_
*1327 _212_
*1328 _213_
*1329 _214_
*1330 _215_
*1331 _216_
*1332 _217_
*1333 _218_
*1334 _219_
*1335 _220_
*1336 _221_
*1337 _222_
*1338 _223_
*1339 _224_
*1340 _225_
*1341 _226_
*1342 _227_
*1343 _228_
*1344 _231_
*1345 _232_
*1346 _233_
*1347 _234_
*1348 _235_
*1349 clkbuf_0_clk
*1350 clkbuf_1_0__f_clk
*1351 clkbuf_1_1__f_clk
*1352 ita40_25
*1353 ita40_26
*1354 output1
*1355 output10
*1356 output11
*1357 output12
*1358 output13
*1359 output14
*1360 output15
*1361 output16
*1362 output17
*1363 output18
*1364 output19
*1365 output2
*1366 output20
*1367 output21
*1368 output22
*1369 output23
*1370 output24
*1371 output3
*1372 output4
*1373 output5
*1374 output6
*1375 output7
*1376 output8
*1377 output9

*PORTS
clk I
segm[0] O
segm[10] O
segm[11] O
segm[12] O
segm[13] O
segm[1] O
segm[2] O
segm[3] O
segm[4] O
segm[5] O
segm[6] O
segm[7] O
segm[8] O
segm[9] O
sel[0] O
sel[10] O
sel[11] O
sel[1] O
sel[2] O
sel[3] O
sel[4] O
sel[5] O
sel[6] O
sel[7] O
sel[8] O
sel[9] O

*D_NET *1 0.0118651
*CONN
*P clk I
*I *1349:I I *D gf180mcu_fd_sc_mcu7t5v0__clkbuf_16
*I *191:I I *D gf180mcu_fd_sc_mcu7t5v0__antenna
*CAP
1 clk 0.00242403
2 *1349:I 8.48539e-05
3 *191:I 0
4 *1:17 0.0027713
5 *1:11 0.00511047
6 *1349:I *1236:I 0
7 *1349:I *110:24 0
8 *1:17 *1221:I 0.000134086
9 *1:17 *1236:I 1.60428e-05
10 *1:17 *1252:A3 0
11 *1:17 *1324:CLK 0
12 *1:17 *93:8 0.000121401
13 *1:17 *94:32 1.13256e-05
14 *1:17 *110:24 0.000113027
15 *1:17 *120:36 0.000598073
16 *1:17 *134:49 0
17 *1:17 *138:10 0.000480456
*RES
1 clk *1:11 27.044 
2 *1:11 *1:17 30.292 
3 *1:17 *191:I 4.5 
4 *1:17 *1349:I 5.228 
*END

*D_NET *2 0.00166928
*CONN
*P segm[0] O
*I *1352:ZN O *D gf180mcu_fd_sc_mcu7t5v0__tiel
*CAP
1 segm[0] 0.000834639
2 *1352:ZN 0.000834639
*RES
1 *1352:ZN segm[0] 11.312 
*END

*D_NET *3 0.00106519
*CONN
*P segm[10] O
*I *1354:Z O *D gf180mcu_fd_sc_mcu7t5v0__buf_8
*CAP
1 segm[10] 0.000532593
2 *1354:Z 0.000532593
*RES
1 *1354:Z segm[10] 13.108 
*END

*D_NET *4 0.000837676
*CONN
*P segm[11] O
*I *1365:Z O *D gf180mcu_fd_sc_mcu7t5v0__buf_8
*CAP
1 segm[11] 0.000382831
2 *1365:Z 0.000382831
3 segm[11] segm[12] 7.20128e-05
*RES
1 *1365:Z segm[11] 12.276 
*END

*D_NET *5 0.000514696
*CONN
*P segm[12] O
*I *1371:Z O *D gf180mcu_fd_sc_mcu7t5v0__buf_8
*CAP
1 segm[12] 0.000221342
2 *1371:Z 0.000221342
3 segm[11] segm[12] 7.20128e-05
*RES
1 *1371:Z segm[12] 11.34 
*END
