*SPEF "ieee 1481-1999"
*DESIGN "ita47"
*DATE "11:11:11 Fri 11 11, 1111"
*VENDOR "OpenRCX"
*PROGRAM "Parallel Extraction"
*VERSION "1.0"
*DESIGN_FLOW "NAME_SCOPE LOCAL" "PIN_CAP NONE"
*DIVIDER /
*DELIMITER :
*BUS_DELIMITER []
*T_UNIT 1 NS
*C_UNIT 1 PF
*R_UNIT 1 OHM
*L_UNIT 1 HENRY

*NAME_MAP
*1 clk
*2 net25
*3 segm[10]
*4 segm[11]
*5 segm[12]
*6 segm[13]
*7 segm[1]
*8 segm[2]
*9 net26
*10 segm[4]
*11 segm[5]
*12 segm[6]
*13 segm[7]
*14 segm[8]
*15 segm[9]
*16 sel[0]
*17 sel[10]
*18 sel[11]
*19 sel[1]
*20 sel[2]
*21 sel[3]
*22 sel[4]
*23 sel[5]
*24 sel[6]
*25 sel[7]
*26 sel[8]
*27 sel[9]
*30 _000_
*31 _001_
*32 _002_
*33 _003_
*34 _004_
*35 _005_
*36 _006_
*37 _007_
*38 _008_
*39 _009_
*40 _010_
*41 _011_
*42 _012_
*43 _013_
*44 _014_
*45 _015_
*46 _016_
*47 _017_
*48 _018_
*49 _019_
*50 _020_
*51 _021_
*52 _022_
*53 _023_
*54 _024_
*55 _025_
*56 _026_
*57 _027_
*58 _028_
*59 _029_
*60 _030_
*61 _031_
*62 _032_
*63 _033_
*64 _034_
*65 _035_
*66 _036_
*67 _037_
*68 _038_
*69 _039_
*70 _040_
*71 _041_
*72 _042_
*73 _043_
*74 _044_
*75 _045_
*76 _046_
*77 _047_
*78 _048_
*79 _049_
*80 _050_
*81 _051_
*82 _052_
*83 _053_
*84 _054_
*85 _055_
*86 _056_
*87 _057_
*88 _058_
*89 _059_
*90 _060_
*91 _061_
*92 _062_
*93 _063_
*94 _064_
*95 _065_
*96 _066_
*97 _067_
*98 _068_
*99 _069_
*100 _070_
*101 _071_
*102 _072_
*103 _073_
*104 _074_
*105 _075_
*106 _076_
*107 _077_
*108 _078_
*109 _079_
*110 _080_
*111 _081_
*112 _082_
*113 _083_
*114 _084_
*115 _085_
*116 _086_
*117 _087_
*118 _088_
*119 _089_
*120 _090_
*121 _091_
*122 _092_
*123 _093_
*124 _094_
*125 _095_
*126 _096_
*127 clknet_0_clk
*128 clknet_1_0__leaf_clk
*129 clknet_1_1__leaf_clk
*130 dut47\.count\[0\]
*131 dut47\.count\[1\]
*132 dut47\.count\[2\]
*133 dut47\.count\[3\]
*134 net1
*135 net10
*136 net11
*137 net12
*138 net13
*139 net14
*140 net15
*141 net16
*142 net17
*143 net18
*144 net19
*145 net2
*146 net20
*147 net21
*148 net22
*149 net23
*150 net24
*151 net3
*152 net4
*153 net5
*154 net6
*155 net7
*156 net8
*157 net9
*158 ANTENNA__194__CLK
*159 ANTENNA__195__CLK
*160 ANTENNA__196__CLK
*161 ANTENNA__197__CLK
*162 ANTENNA__198__CLK
*163 ANTENNA__199__CLK
*164 ANTENNA__200__CLK
*165 ANTENNA__201__CLK
*166 ANTENNA__202__CLK
*167 ANTENNA__203__CLK
*168 ANTENNA__204__CLK
*169 ANTENNA__205__CLK
*170 ANTENNA__206__CLK
*171 ANTENNA__207__CLK
*172 ANTENNA__208__CLK
*173 ANTENNA__209__CLK
*174 ANTENNA__210__CLK
*175 ANTENNA__211__CLK
*176 ANTENNA__212__CLK
*177 ANTENNA__213__CLK
*178 ANTENNA__214__CLK
*179 ANTENNA__215__CLK
*180 ANTENNA__216__CLK
*181 ANTENNA__217__CLK
*182 ANTENNA_clkbuf_0_clk_I
*183 FILLER_0_0_104
*184 FILLER_0_0_138
*185 FILLER_0_0_142
*186 FILLER_0_0_172
*187 FILLER_0_0_176
*188 FILLER_0_0_2
*189 FILLER_0_0_232
*190 FILLER_0_0_236
*191 FILLER_0_0_240
*192 FILLER_0_0_274
*193 FILLER_0_0_308
*194 FILLER_0_0_342
*195 FILLER_0_0_346
*196 FILLER_0_0_348
*197 FILLER_0_0_36
*198 FILLER_0_0_70
*199 FILLER_0_10_101
*200 FILLER_0_10_107
*201 FILLER_0_10_171
*202 FILLER_0_10_177
*203 FILLER_0_10_2
*204 FILLER_0_10_241
*205 FILLER_0_10_247
*206 FILLER_0_10_311
*207 FILLER_0_10_317
*208 FILLER_0_10_34
*209 FILLER_0_10_37
*210 FILLER_0_11_136
*211 FILLER_0_11_142
*212 FILLER_0_11_2
*213 FILLER_0_11_206
*214 FILLER_0_11_212
*215 FILLER_0_11_276
*216 FILLER_0_11_282
*217 FILLER_0_11_346
*218 FILLER_0_11_348
*219 FILLER_0_11_66
*220 FILLER_0_11_72
*221 FILLER_0_12_101
*222 FILLER_0_12_107
*223 FILLER_0_12_171
*224 FILLER_0_12_177
*225 FILLER_0_12_2
*226 FILLER_0_12_241
*227 FILLER_0_12_247
*228 FILLER_0_12_311
*229 FILLER_0_12_317
*230 FILLER_0_12_34
*231 FILLER_0_12_37
*232 FILLER_0_13_136
*233 FILLER_0_13_142
*234 FILLER_0_13_158
*235 FILLER_0_13_166
*236 FILLER_0_13_196
*237 FILLER_0_13_2
*238 FILLER_0_13_200
*239 FILLER_0_13_208
*240 FILLER_0_13_212
*241 FILLER_0_13_276
*242 FILLER_0_13_282
*243 FILLER_0_13_346
*244 FILLER_0_13_348
*245 FILLER_0_13_66
*246 FILLER_0_13_72
*247 FILLER_0_14_101
*248 FILLER_0_14_107
*249 FILLER_0_14_173
*250 FILLER_0_14_177
*251 FILLER_0_14_193
*252 FILLER_0_14_2
*253 FILLER_0_14_201
*254 FILLER_0_14_204
*255 FILLER_0_14_236
*256 FILLER_0_14_244
*257 FILLER_0_14_247
*258 FILLER_0_14_311
*259 FILLER_0_14_317
*260 FILLER_0_14_34
*261 FILLER_0_14_37
*262 FILLER_0_15_136
*263 FILLER_0_15_171
*264 FILLER_0_15_2
*265 FILLER_0_15_208
*266 FILLER_0_15_212
*267 FILLER_0_15_220
*268 FILLER_0_15_229
*269 FILLER_0_15_261
*270 FILLER_0_15_277
*271 FILLER_0_15_279
*272 FILLER_0_15_282
*273 FILLER_0_15_346
*274 FILLER_0_15_348
*275 FILLER_0_15_66
*276 FILLER_0_15_72
*277 FILLER_0_16_101
*278 FILLER_0_16_107
*279 FILLER_0_16_164
*280 FILLER_0_16_172
*281 FILLER_0_16_174
*282 FILLER_0_16_177
*283 FILLER_0_16_193
*284 FILLER_0_16_2
*285 FILLER_0_16_201
*286 FILLER_0_16_203
*287 FILLER_0_16_238
*288 FILLER_0_16_242
*289 FILLER_0_16_244
*290 FILLER_0_16_247
*291 FILLER_0_16_311
*292 FILLER_0_16_317
*293 FILLER_0_16_321
*294 FILLER_0_16_34
*295 FILLER_0_16_37
*296 FILLER_0_17_129
*297 FILLER_0_17_133
*298 FILLER_0_17_137
*299 FILLER_0_17_139
*300 FILLER_0_17_151
*301 FILLER_0_17_155
*302 FILLER_0_17_171
*303 FILLER_0_17_179
*304 FILLER_0_17_181
*305 FILLER_0_17_2
*306 FILLER_0_17_209
*307 FILLER_0_17_212
*308 FILLER_0_17_214
*309 FILLER_0_17_244
*310 FILLER_0_17_248
*311 FILLER_0_17_282
*312 FILLER_0_17_314
*313 FILLER_0_17_322
*314 FILLER_0_17_66
*315 FILLER_0_17_72
*316 FILLER_0_17_88
*317 FILLER_0_17_96
*318 FILLER_0_18_101
*319 FILLER_0_18_112
*320 FILLER_0_18_120
*321 FILLER_0_18_128
*322 FILLER_0_18_140
*323 FILLER_0_18_144
*324 FILLER_0_18_146
*325 FILLER_0_18_172
*326 FILLER_0_18_174
*327 FILLER_0_18_177
*328 FILLER_0_18_205
*329 FILLER_0_18_207
*330 FILLER_0_18_247
*331 FILLER_0_18_251
*332 FILLER_0_18_28
*333 FILLER_0_18_317
*334 FILLER_0_18_32
*335 FILLER_0_18_321
*336 FILLER_0_18_34
*337 FILLER_0_18_37
*338 FILLER_0_19_118
*339 FILLER_0_19_122
*340 FILLER_0_19_130
*341 FILLER_0_19_142
*342 FILLER_0_19_153
*343 FILLER_0_19_161
*344 FILLER_0_19_171
*345 FILLER_0_19_179
*346 FILLER_0_19_183
*347 FILLER_0_19_198
*348 FILLER_0_19_245
*349 FILLER_0_19_249
*350 FILLER_0_19_265
*351 FILLER_0_19_273
*352 FILLER_0_19_277
*353 FILLER_0_19_279
*354 FILLER_0_19_28
*355 FILLER_0_19_282
*356 FILLER_0_19_346
*357 FILLER_0_19_348
*358 FILLER_0_19_60
*359 FILLER_0_19_68
*360 FILLER_0_19_72
*361 FILLER_0_19_80
*362 FILLER_0_1_136
*363 FILLER_0_1_142
*364 FILLER_0_1_158
*365 FILLER_0_1_162
*366 FILLER_0_1_189
*367 FILLER_0_1_2
*368 FILLER_0_1_205
*369 FILLER_0_1_209
*370 FILLER_0_1_212
*371 FILLER_0_1_276
*372 FILLER_0_1_282
*373 FILLER_0_1_346
*374 FILLER_0_1_348
*375 FILLER_0_1_66
*376 FILLER_0_1_72
*377 FILLER_0_20_101
*378 FILLER_0_20_107
*379 FILLER_0_20_139
*380 FILLER_0_20_174
*381 FILLER_0_20_183
*382 FILLER_0_20_187
*383 FILLER_0_20_189
*384 FILLER_0_20_2
*385 FILLER_0_20_231
*386 FILLER_0_20_239
*387 FILLER_0_20_243
*388 FILLER_0_20_247
*389 FILLER_0_20_311
*390 FILLER_0_20_317
*391 FILLER_0_20_34
*392 FILLER_0_20_37
*393 FILLER_0_21_110
*394 FILLER_0_21_119
*395 FILLER_0_21_142
*396 FILLER_0_21_190
*397 FILLER_0_21_198
*398 FILLER_0_21_2
*399 FILLER_0_21_208
*400 FILLER_0_21_212
*401 FILLER_0_21_245
*402 FILLER_0_21_249
*403 FILLER_0_21_265
*404 FILLER_0_21_273
*405 FILLER_0_21_277
*406 FILLER_0_21_279
*407 FILLER_0_21_282
*408 FILLER_0_21_346
*409 FILLER_0_21_348
*410 FILLER_0_21_66
*411 FILLER_0_21_72
*412 FILLER_0_21_88
*413 FILLER_0_21_96
*414 FILLER_0_22_136
*415 FILLER_0_22_138
*416 FILLER_0_22_149
*417 FILLER_0_22_171
*418 FILLER_0_22_2
*419 FILLER_0_22_237
*420 FILLER_0_22_247
*421 FILLER_0_22_311
*422 FILLER_0_22_317
*423 FILLER_0_22_34
*424 FILLER_0_22_37
*425 FILLER_0_22_69
*426 FILLER_0_22_73
*427 FILLER_0_22_75
*428 FILLER_0_23_104
*429 FILLER_0_23_107
*430 FILLER_0_23_123
*431 FILLER_0_23_127
*432 FILLER_0_23_262
*433 FILLER_0_23_278
*434 FILLER_0_23_28
*435 FILLER_0_23_282
*436 FILLER_0_23_314
*437 FILLER_0_23_322
*438 FILLER_0_23_60
*439 FILLER_0_23_68
*440 FILLER_0_23_72
*441 FILLER_0_24_101
*442 FILLER_0_24_107
*443 FILLER_0_24_123
*444 FILLER_0_24_131
*445 FILLER_0_24_135
*446 FILLER_0_24_137
*447 FILLER_0_24_140
*448 FILLER_0_24_2
*449 FILLER_0_24_210
*450 FILLER_0_24_239
*451 FILLER_0_24_243
*452 FILLER_0_24_247
*453 FILLER_0_24_311
*454 FILLER_0_24_317
*455 FILLER_0_24_34
*456 FILLER_0_24_37
*457 FILLER_0_25_138
*458 FILLER_0_25_147
*459 FILLER_0_25_151
*460 FILLER_0_25_159
*461 FILLER_0_25_167
*462 FILLER_0_25_171
*463 FILLER_0_25_181
*464 FILLER_0_25_183
*465 FILLER_0_25_190
*466 FILLER_0_25_2
*467 FILLER_0_25_207
*468 FILLER_0_25_209
*469 FILLER_0_25_212
*470 FILLER_0_25_243
*471 FILLER_0_25_247
*472 FILLER_0_25_279
*473 FILLER_0_25_282
*474 FILLER_0_25_314
*475 FILLER_0_25_322
*476 FILLER_0_25_66
*477 FILLER_0_25_72
*478 FILLER_0_26_101
*479 FILLER_0_26_107
*480 FILLER_0_26_113
*481 FILLER_0_26_121
*482 FILLER_0_26_136
*483 FILLER_0_26_168
*484 FILLER_0_26_172
*485 FILLER_0_26_174
*486 FILLER_0_26_177
*487 FILLER_0_26_181
*488 FILLER_0_26_195
*489 FILLER_0_26_211
*490 FILLER_0_26_219
*491 FILLER_0_26_223
*492 FILLER_0_26_238
*493 FILLER_0_26_242
*494 FILLER_0_26_244
*495 FILLER_0_26_247
*496 FILLER_0_26_28
*497 FILLER_0_26_311
*498 FILLER_0_26_317
*499 FILLER_0_26_32
*500 FILLER_0_26_34
*501 FILLER_0_26_37
*502 FILLER_0_27_115
*503 FILLER_0_27_119
*504 FILLER_0_27_121
*505 FILLER_0_27_131
*506 FILLER_0_27_139
*507 FILLER_0_27_148
*508 FILLER_0_27_185
*509 FILLER_0_27_187
*510 FILLER_0_27_194
*511 FILLER_0_27_198
*512 FILLER_0_27_2
*513 FILLER_0_27_206
*514 FILLER_0_27_212
*515 FILLER_0_27_216
*516 FILLER_0_27_252
*517 FILLER_0_27_256
*518 FILLER_0_27_272
*519 FILLER_0_27_282
*520 FILLER_0_27_346
*521 FILLER_0_27_348
*522 FILLER_0_27_66
*523 FILLER_0_27_72
*524 FILLER_0_27_80
*525 FILLER_0_27_84
*526 FILLER_0_28_101
*527 FILLER_0_28_107
*528 FILLER_0_28_109
*529 FILLER_0_28_114
*530 FILLER_0_28_151
*531 FILLER_0_28_155
*532 FILLER_0_28_163
*533 FILLER_0_28_2
*534 FILLER_0_28_211
*535 FILLER_0_28_243
*536 FILLER_0_28_247
*537 FILLER_0_28_311
*538 FILLER_0_28_317
*539 FILLER_0_28_321
*540 FILLER_0_28_34
*541 FILLER_0_28_37
*542 FILLER_0_29_129
*543 FILLER_0_29_133
*544 FILLER_0_29_137
*545 FILLER_0_29_139
*546 FILLER_0_29_156
*547 FILLER_0_29_172
*548 FILLER_0_29_181
*549 FILLER_0_29_197
*550 FILLER_0_29_205
*551 FILLER_0_29_209
*552 FILLER_0_29_220
*553 FILLER_0_29_232
*554 FILLER_0_29_264
*555 FILLER_0_29_28
*556 FILLER_0_29_282
*557 FILLER_0_29_346
*558 FILLER_0_29_348
*559 FILLER_0_29_60
*560 FILLER_0_29_68
*561 FILLER_0_29_72
*562 FILLER_0_29_88
*563 FILLER_0_2_101
*564 FILLER_0_2_107
*565 FILLER_0_2_171
*566 FILLER_0_2_177
*567 FILLER_0_2_193
*568 FILLER_0_2_197
*569 FILLER_0_2_2
*570 FILLER_0_2_225
*571 FILLER_0_2_241
*572 FILLER_0_2_247
*573 FILLER_0_2_311
*574 FILLER_0_2_317
*575 FILLER_0_2_34
*576 FILLER_0_2_37
*577 FILLER_0_30_101
*578 FILLER_0_30_107
*579 FILLER_0_30_115
*580 FILLER_0_30_123
*581 FILLER_0_30_155
*582 FILLER_0_30_163
*583 FILLER_0_30_171
*584 FILLER_0_30_177
*585 FILLER_0_30_193
*586 FILLER_0_30_197
*587 FILLER_0_30_236
*588 FILLER_0_30_240
*589 FILLER_0_30_244
*590 FILLER_0_30_247
*591 FILLER_0_30_28
*592 FILLER_0_30_311
*593 FILLER_0_30_317
*594 FILLER_0_30_32
*595 FILLER_0_30_34
*596 FILLER_0_30_37
*597 FILLER_0_31_136
*598 FILLER_0_31_142
*599 FILLER_0_31_150
*600 FILLER_0_31_181
*601 FILLER_0_31_193
*602 FILLER_0_31_201
*603 FILLER_0_31_241
*604 FILLER_0_31_245
*605 FILLER_0_31_277
*606 FILLER_0_31_279
*607 FILLER_0_31_28
*608 FILLER_0_31_282
*609 FILLER_0_31_346
*610 FILLER_0_31_348
*611 FILLER_0_31_60
*612 FILLER_0_31_68
*613 FILLER_0_31_72
*614 FILLER_0_32_101
*615 FILLER_0_32_107
*616 FILLER_0_32_171
*617 FILLER_0_32_177
*618 FILLER_0_32_2
*619 FILLER_0_32_214
*620 FILLER_0_32_218
*621 FILLER_0_32_234
*622 FILLER_0_32_242
*623 FILLER_0_32_244
*624 FILLER_0_32_247
*625 FILLER_0_32_311
*626 FILLER_0_32_317
*627 FILLER_0_32_34
*628 FILLER_0_32_37
*629 FILLER_0_33_136
*630 FILLER_0_33_142
*631 FILLER_0_33_2
*632 FILLER_0_33_206
*633 FILLER_0_33_212
*634 FILLER_0_33_276
*635 FILLER_0_33_282
*636 FILLER_0_33_346
*637 FILLER_0_33_348
*638 FILLER_0_33_66
*639 FILLER_0_33_72
*640 FILLER_0_34_101
*641 FILLER_0_34_107
*642 FILLER_0_34_171
*643 FILLER_0_34_177
*644 FILLER_0_34_2
*645 FILLER_0_34_241
*646 FILLER_0_34_247
*647 FILLER_0_34_311
*648 FILLER_0_34_317
*649 FILLER_0_34_34
*650 FILLER_0_34_37
*651 FILLER_0_35_136
*652 FILLER_0_35_142
*653 FILLER_0_35_2
*654 FILLER_0_35_206
*655 FILLER_0_35_212
*656 FILLER_0_35_276
*657 FILLER_0_35_282
*658 FILLER_0_35_346
*659 FILLER_0_35_348
*660 FILLER_0_35_66
*661 FILLER_0_35_72
*662 FILLER_0_36_101
*663 FILLER_0_36_107
*664 FILLER_0_36_171
*665 FILLER_0_36_177
*666 FILLER_0_36_2
*667 FILLER_0_36_241
*668 FILLER_0_36_247
*669 FILLER_0_36_311
*670 FILLER_0_36_317
*671 FILLER_0_36_34
*672 FILLER_0_36_37
*673 FILLER_0_37_136
*674 FILLER_0_37_142
*675 FILLER_0_37_2
*676 FILLER_0_37_206
*677 FILLER_0_37_212
*678 FILLER_0_37_276
*679 FILLER_0_37_282
*680 FILLER_0_37_346
*681 FILLER_0_37_348
*682 FILLER_0_37_66
*683 FILLER_0_37_72
*684 FILLER_0_38_101
*685 FILLER_0_38_107
*686 FILLER_0_38_171
*687 FILLER_0_38_177
*688 FILLER_0_38_2
*689 FILLER_0_38_241
*690 FILLER_0_38_247
*691 FILLER_0_38_311
*692 FILLER_0_38_317
*693 FILLER_0_38_34
*694 FILLER_0_38_37
*695 FILLER_0_39_136
*696 FILLER_0_39_142
*697 FILLER_0_39_2
*698 FILLER_0_39_206
*699 FILLER_0_39_212
*700 FILLER_0_39_276
*701 FILLER_0_39_282
*702 FILLER_0_39_346
*703 FILLER_0_39_348
*704 FILLER_0_39_66
*705 FILLER_0_39_72
*706 FILLER_0_3_136
*707 FILLER_0_3_142
*708 FILLER_0_3_2
*709 FILLER_0_3_206
*710 FILLER_0_3_212
*711 FILLER_0_3_276
*712 FILLER_0_3_282
*713 FILLER_0_3_346
*714 FILLER_0_3_348
*715 FILLER_0_3_66
*716 FILLER_0_3_72
*717 FILLER_0_40_101
*718 FILLER_0_40_107
*719 FILLER_0_40_171
*720 FILLER_0_40_177
*721 FILLER_0_40_2
*722 FILLER_0_40_241
*723 FILLER_0_40_247
*724 FILLER_0_40_311
*725 FILLER_0_40_317
*726 FILLER_0_40_34
*727 FILLER_0_40_37
*728 FILLER_0_41_136
*729 FILLER_0_41_142
*730 FILLER_0_41_2
*731 FILLER_0_41_206
*732 FILLER_0_41_212
*733 FILLER_0_41_276
*734 FILLER_0_41_282
*735 FILLER_0_41_346
*736 FILLER_0_41_348
*737 FILLER_0_41_66
*738 FILLER_0_41_72
*739 FILLER_0_42_101
*740 FILLER_0_42_107
*741 FILLER_0_42_171
*742 FILLER_0_42_177
*743 FILLER_0_42_22
*744 FILLER_0_42_241
*745 FILLER_0_42_247
*746 FILLER_0_42_30
*747 FILLER_0_42_311
*748 FILLER_0_42_317
*749 FILLER_0_42_34
*750 FILLER_0_42_37
*751 FILLER_0_42_6
*752 FILLER_0_43_136
*753 FILLER_0_43_142
*754 FILLER_0_43_2
*755 FILLER_0_43_206
*756 FILLER_0_43_264
*757 FILLER_0_43_282
*758 FILLER_0_43_346
*759 FILLER_0_43_348
*760 FILLER_0_43_66
*761 FILLER_0_43_72
*762 FILLER_0_44_104
*763 FILLER_0_44_138
*764 FILLER_0_44_172
*765 FILLER_0_44_176
*766 FILLER_0_44_2
*767 FILLER_0_44_232
*768 FILLER_0_44_236
*769 FILLER_0_44_266
*770 FILLER_0_44_270
*771 FILLER_0_44_274
*772 FILLER_0_44_308
*773 FILLER_0_44_342
*774 FILLER_0_44_346
*775 FILLER_0_44_348
*776 FILLER_0_44_36
*777 FILLER_0_44_70
*778 FILLER_0_4_101
*779 FILLER_0_4_107
*780 FILLER_0_4_171
*781 FILLER_0_4_177
*782 FILLER_0_4_2
*783 FILLER_0_4_241
*784 FILLER_0_4_247
*785 FILLER_0_4_311
*786 FILLER_0_4_317
*787 FILLER_0_4_34
*788 FILLER_0_4_37
*789 FILLER_0_5_136
*790 FILLER_0_5_142
*791 FILLER_0_5_2
*792 FILLER_0_5_206
*793 FILLER_0_5_212
*794 FILLER_0_5_276
*795 FILLER_0_5_282
*796 FILLER_0_5_346
*797 FILLER_0_5_348
*798 FILLER_0_5_66
*799 FILLER_0_5_72
*800 FILLER_0_6_101
*801 FILLER_0_6_107
*802 FILLER_0_6_171
*803 FILLER_0_6_177
*804 FILLER_0_6_2
*805 FILLER_0_6_241
*806 FILLER_0_6_247
*807 FILLER_0_6_311
*808 FILLER_0_6_317
*809 FILLER_0_6_34
*810 FILLER_0_6_37
*811 FILLER_0_7_136
*812 FILLER_0_7_142
*813 FILLER_0_7_2
*814 FILLER_0_7_206
*815 FILLER_0_7_212
*816 FILLER_0_7_276
*817 FILLER_0_7_282
*818 FILLER_0_7_346
*819 FILLER_0_7_348
*820 FILLER_0_7_66
*821 FILLER_0_7_72
*822 FILLER_0_8_101
*823 FILLER_0_8_107
*824 FILLER_0_8_171
*825 FILLER_0_8_177
*826 FILLER_0_8_2
*827 FILLER_0_8_241
*828 FILLER_0_8_247
*829 FILLER_0_8_311
*830 FILLER_0_8_317
*831 FILLER_0_8_34
*832 FILLER_0_8_37
*833 FILLER_0_9_136
*834 FILLER_0_9_142
*835 FILLER_0_9_2
*836 FILLER_0_9_206
*837 FILLER_0_9_212
*838 FILLER_0_9_276
*839 FILLER_0_9_282
*840 FILLER_0_9_346
*841 FILLER_0_9_348
*842 FILLER_0_9_66
*843 FILLER_0_9_72
*844 PHY_EDGE_ROW_0_Left_45
*845 PHY_EDGE_ROW_0_Right_0
*846 PHY_EDGE_ROW_10_Left_55
*847 PHY_EDGE_ROW_10_Right_10
*848 PHY_EDGE_ROW_11_Left_56
*849 PHY_EDGE_ROW_11_Right_11
*850 PHY_EDGE_ROW_12_Left_57
*851 PHY_EDGE_ROW_12_Right_12
*852 PHY_EDGE_ROW_13_Left_58
*853 PHY_EDGE_ROW_13_Right_13
*854 PHY_EDGE_ROW_14_Left_59
*855 PHY_EDGE_ROW_14_Right_14
*856 PHY_EDGE_ROW_15_Left_60
*857 PHY_EDGE_ROW_15_Right_15
*858 PHY_EDGE_ROW_16_Left_61
*859 PHY_EDGE_ROW_16_Right_16
*860 PHY_EDGE_ROW_17_Left_62
*861 PHY_EDGE_ROW_17_Right_17
*862 PHY_EDGE_ROW_18_Left_63
*863 PHY_EDGE_ROW_18_Right_18
*864 PHY_EDGE_ROW_19_Left_64
*865 PHY_EDGE_ROW_19_Right_19
*866 PHY_EDGE_ROW_1_Left_46
*867 PHY_EDGE_ROW_1_Right_1
*868 PHY_EDGE_ROW_20_Left_65
*869 PHY_EDGE_ROW_20_Right_20
*870 PHY_EDGE_ROW_21_Left_66
*871 PHY_EDGE_ROW_21_Right_21
*872 PHY_EDGE_ROW_22_Left_67
*873 PHY_EDGE_ROW_22_Right_22
*874 PHY_EDGE_ROW_23_Left_68
*875 PHY_EDGE_ROW_23_Right_23
*876 PHY_EDGE_ROW_24_Left_69
*877 PHY_EDGE_ROW_24_Right_24
*878 PHY_EDGE_ROW_25_Left_70
*879 PHY_EDGE_ROW_25_Right_25
*880 PHY_EDGE_ROW_26_Left_71
*881 PHY_EDGE_ROW_26_Right_26
*882 PHY_EDGE_ROW_27_Left_72
*883 PHY_EDGE_ROW_27_Right_27
*884 PHY_EDGE_ROW_28_Left_73
*885 PHY_EDGE_ROW_28_Right_28
*886 PHY_EDGE_ROW_29_Left_74
*887 PHY_EDGE_ROW_29_Right_29
*888 PHY_EDGE_ROW_2_Left_47
*889 PHY_EDGE_ROW_2_Right_2
*890 PHY_EDGE_ROW_30_Left_75
*891 PHY_EDGE_ROW_30_Right_30
*892 PHY_EDGE_ROW_31_Left_76
*893 PHY_EDGE_ROW_31_Right_31
*894 PHY_EDGE_ROW_32_Left_77
*895 PHY_EDGE_ROW_32_Right_32
*896 PHY_EDGE_ROW_33_Left_78
*897 PHY_EDGE_ROW_33_Right_33
*898 PHY_EDGE_ROW_34_Left_79
*899 PHY_EDGE_ROW_34_Right_34
*900 PHY_EDGE_ROW_35_Left_80
*901 PHY_EDGE_ROW_35_Right_35
*902 PHY_EDGE_ROW_36_Left_81
*903 PHY_EDGE_ROW_36_Right_36
*904 PHY_EDGE_ROW_37_Left_82
*905 PHY_EDGE_ROW_37_Right_37
*906 PHY_EDGE_ROW_38_Left_83
*907 PHY_EDGE_ROW_38_Right_38
*908 PHY_EDGE_ROW_39_Left_84
*909 PHY_EDGE_ROW_39_Right_39
*910 PHY_EDGE_ROW_3_Left_48
*911 PHY_EDGE_ROW_3_Right_3
*912 PHY_EDGE_ROW_40_Left_85
*913 PHY_EDGE_ROW_40_Right_40
*914 PHY_EDGE_ROW_41_Left_86
*915 PHY_EDGE_ROW_41_Right_41
*916 PHY_EDGE_ROW_42_Left_87
*917 PHY_EDGE_ROW_42_Right_42
*918 PHY_EDGE_ROW_43_Left_88
*919 PHY_EDGE_ROW_43_Right_43
*920 PHY_EDGE_ROW_44_Left_89
*921 PHY_EDGE_ROW_44_Right_44
*922 PHY_EDGE_ROW_4_Left_49
*923 PHY_EDGE_ROW_4_Right_4
*924 PHY_EDGE_ROW_5_Left_50
*925 PHY_EDGE_ROW_5_Right_5
*926 PHY_EDGE_ROW_6_Left_51
*927 PHY_EDGE_ROW_6_Right_6
*928 PHY_EDGE_ROW_7_Left_52
*929 PHY_EDGE_ROW_7_Right_7
*930 PHY_EDGE_ROW_8_Left_53
*931 PHY_EDGE_ROW_8_Right_8
*932 PHY_EDGE_ROW_9_Left_54
*933 PHY_EDGE_ROW_9_Right_9
*934 TAP_TAPCELL_ROW_0_90
*935 TAP_TAPCELL_ROW_0_91
*936 TAP_TAPCELL_ROW_0_92
*937 TAP_TAPCELL_ROW_0_93
*938 TAP_TAPCELL_ROW_0_94
*939 TAP_TAPCELL_ROW_0_95
*940 TAP_TAPCELL_ROW_0_96
*941 TAP_TAPCELL_ROW_0_97
*942 TAP_TAPCELL_ROW_0_98
*943 TAP_TAPCELL_ROW_0_99
*944 TAP_TAPCELL_ROW_10_140
*945 TAP_TAPCELL_ROW_10_141
*946 TAP_TAPCELL_ROW_10_142
*947 TAP_TAPCELL_ROW_10_143
*948 TAP_TAPCELL_ROW_10_144
*949 TAP_TAPCELL_ROW_11_145
*950 TAP_TAPCELL_ROW_11_146
*951 TAP_TAPCELL_ROW_11_147
*952 TAP_TAPCELL_ROW_11_148
*953 TAP_TAPCELL_ROW_12_149
*954 TAP_TAPCELL_ROW_12_150
*955 TAP_TAPCELL_ROW_12_151
*956 TAP_TAPCELL_ROW_12_152
*957 TAP_TAPCELL_ROW_12_153
*958 TAP_TAPCELL_ROW_13_154
*959 TAP_TAPCELL_ROW_13_155
*960 TAP_TAPCELL_ROW_13_156
*961 TAP_TAPCELL_ROW_13_157
*962 TAP_TAPCELL_ROW_14_158
*963 TAP_TAPCELL_ROW_14_159
*964 TAP_TAPCELL_ROW_14_160
*965 TAP_TAPCELL_ROW_14_161
*966 TAP_TAPCELL_ROW_14_162
*967 TAP_TAPCELL_ROW_15_163
*968 TAP_TAPCELL_ROW_15_164
*969 TAP_TAPCELL_ROW_15_165
*970 TAP_TAPCELL_ROW_15_166
*971 TAP_TAPCELL_ROW_16_167
*972 TAP_TAPCELL_ROW_16_168
*973 TAP_TAPCELL_ROW_16_169
*974 TAP_TAPCELL_ROW_16_170
*975 TAP_TAPCELL_ROW_16_171
*976 TAP_TAPCELL_ROW_17_172
*977 TAP_TAPCELL_ROW_17_173
*978 TAP_TAPCELL_ROW_17_174
*979 TAP_TAPCELL_ROW_17_175
*980 TAP_TAPCELL_ROW_18_176
*981 TAP_TAPCELL_ROW_18_177
*982 TAP_TAPCELL_ROW_18_178
*983 TAP_TAPCELL_ROW_18_179
*984 TAP_TAPCELL_ROW_18_180
*985 TAP_TAPCELL_ROW_19_181
*986 TAP_TAPCELL_ROW_19_182
*987 TAP_TAPCELL_ROW_19_183
*988 TAP_TAPCELL_ROW_19_184
*989 TAP_TAPCELL_ROW_1_100
*990 TAP_TAPCELL_ROW_1_101
*991 TAP_TAPCELL_ROW_1_102
*992 TAP_TAPCELL_ROW_1_103
*993 TAP_TAPCELL_ROW_20_185
*994 TAP_TAPCELL_ROW_20_186
*995 TAP_TAPCELL_ROW_20_187
*996 TAP_TAPCELL_ROW_20_188
*997 TAP_TAPCELL_ROW_20_189
*998 TAP_TAPCELL_ROW_21_190
*999 TAP_TAPCELL_ROW_21_191
*1000 TAP_TAPCELL_ROW_21_192
*1001 TAP_TAPCELL_ROW_21_193
*1002 TAP_TAPCELL_ROW_22_194
*1003 TAP_TAPCELL_ROW_22_195
*1004 TAP_TAPCELL_ROW_22_196
*1005 TAP_TAPCELL_ROW_22_197
*1006 TAP_TAPCELL_ROW_22_198
*1007 TAP_TAPCELL_ROW_23_199
*1008 TAP_TAPCELL_ROW_23_200
*1009 TAP_TAPCELL_ROW_23_201
*1010 TAP_TAPCELL_ROW_23_202
*1011 TAP_TAPCELL_ROW_24_203
*1012 TAP_TAPCELL_ROW_24_204
*1013 TAP_TAPCELL_ROW_24_205
*1014 TAP_TAPCELL_ROW_24_206
*1015 TAP_TAPCELL_ROW_24_207
*1016 TAP_TAPCELL_ROW_25_208
*1017 TAP_TAPCELL_ROW_25_209
*1018 TAP_TAPCELL_ROW_25_210
*1019 TAP_TAPCELL_ROW_25_211
*1020 TAP_TAPCELL_ROW_26_212
*1021 TAP_TAPCELL_ROW_26_213
*1022 TAP_TAPCELL_ROW_26_214
*1023 TAP_TAPCELL_ROW_26_215
*1024 TAP_TAPCELL_ROW_26_216
*1025 TAP_TAPCELL_ROW_27_217
*1026 TAP_TAPCELL_ROW_27_218
*1027 TAP_TAPCELL_ROW_27_219
*1028 TAP_TAPCELL_ROW_27_220
*1029 TAP_TAPCELL_ROW_28_221
*1030 TAP_TAPCELL_ROW_28_222
*1031 TAP_TAPCELL_ROW_28_223
*1032 TAP_TAPCELL_ROW_28_224
*1033 TAP_TAPCELL_ROW_28_225
*1034 TAP_TAPCELL_ROW_29_226
*1035 TAP_TAPCELL_ROW_29_227
*1036 TAP_TAPCELL_ROW_29_228
*1037 TAP_TAPCELL_ROW_29_229
*1038 TAP_TAPCELL_ROW_2_104
*1039 TAP_TAPCELL_ROW_2_105
*1040 TAP_TAPCELL_ROW_2_106
*1041 TAP_TAPCELL_ROW_2_107
*1042 TAP_TAPCELL_ROW_2_108
*1043 TAP_TAPCELL_ROW_30_230
*1044 TAP_TAPCELL_ROW_30_231
*1045 TAP_TAPCELL_ROW_30_232
*1046 TAP_TAPCELL_ROW_30_233
*1047 TAP_TAPCELL_ROW_30_234
*1048 TAP_TAPCELL_ROW_31_235
*1049 TAP_TAPCELL_ROW_31_236
*1050 TAP_TAPCELL_ROW_31_237
*1051 TAP_TAPCELL_ROW_31_238
*1052 TAP_TAPCELL_ROW_32_239
*1053 TAP_TAPCELL_ROW_32_240
*1054 TAP_TAPCELL_ROW_32_241
*1055 TAP_TAPCELL_ROW_32_242
*1056 TAP_TAPCELL_ROW_32_243
*1057 TAP_TAPCELL_ROW_33_244
*1058 TAP_TAPCELL_ROW_33_245
*1059 TAP_TAPCELL_ROW_33_246
*1060 TAP_TAPCELL_ROW_33_247
*1061 TAP_TAPCELL_ROW_34_248
*1062 TAP_TAPCELL_ROW_34_249
*1063 TAP_TAPCELL_ROW_34_250
*1064 TAP_TAPCELL_ROW_34_251
*1065 TAP_TAPCELL_ROW_34_252
*1066 TAP_TAPCELL_ROW_35_253
*1067 TAP_TAPCELL_ROW_35_254
*1068 TAP_TAPCELL_ROW_35_255
*1069 TAP_TAPCELL_ROW_35_256
*1070 TAP_TAPCELL_ROW_36_257
*1071 TAP_TAPCELL_ROW_36_258
*1072 TAP_TAPCELL_ROW_36_259
*1073 TAP_TAPCELL_ROW_36_260
*1074 TAP_TAPCELL_ROW_36_261
*1075 TAP_TAPCELL_ROW_37_262
*1076 TAP_TAPCELL_ROW_37_263
*1077 TAP_TAPCELL_ROW_37_264
*1078 TAP_TAPCELL_ROW_37_265
*1079 TAP_TAPCELL_ROW_38_266
*1080 TAP_TAPCELL_ROW_38_267
*1081 TAP_TAPCELL_ROW_38_268
*1082 TAP_TAPCELL_ROW_38_269
*1083 TAP_TAPCELL_ROW_38_270
*1084 TAP_TAPCELL_ROW_39_271
*1085 TAP_TAPCELL_ROW_39_272
*1086 TAP_TAPCELL_ROW_39_273
*1087 TAP_TAPCELL_ROW_39_274
*1088 TAP_TAPCELL_ROW_3_109
*1089 TAP_TAPCELL_ROW_3_110
*1090 TAP_TAPCELL_ROW_3_111
*1091 TAP_TAPCELL_ROW_3_112
*1092 TAP_TAPCELL_ROW_40_275
*1093 TAP_TAPCELL_ROW_40_276
*1094 TAP_TAPCELL_ROW_40_277
*1095 TAP_TAPCELL_ROW_40_278
*1096 TAP_TAPCELL_ROW_40_279
*1097 TAP_TAPCELL_ROW_41_280
*1098 TAP_TAPCELL_ROW_41_281
*1099 TAP_TAPCELL_ROW_41_282
*1100 TAP_TAPCELL_ROW_41_283
*1101 TAP_TAPCELL_ROW_42_284
*1102 TAP_TAPCELL_ROW_42_285
*1103 TAP_TAPCELL_ROW_42_286
*1104 TAP_TAPCELL_ROW_42_287
*1105 TAP_TAPCELL_ROW_42_288
*1106 TAP_TAPCELL_ROW_43_289
*1107 TAP_TAPCELL_ROW_43_290
*1108 TAP_TAPCELL_ROW_43_291
*1109 TAP_TAPCELL_ROW_43_292
*1110 TAP_TAPCELL_ROW_44_293
*1111 TAP_TAPCELL_ROW_44_294
*1112 TAP_TAPCELL_ROW_44_295
*1113 TAP_TAPCELL_ROW_44_296
*1114 TAP_TAPCELL_ROW_44_297
*1115 TAP_TAPCELL_ROW_44_298
*1116 TAP_TAPCELL_ROW_44_299
*1117 TAP_TAPCELL_ROW_44_300
*1118 TAP_TAPCELL_ROW_44_301
*1119 TAP_TAPCELL_ROW_44_302
*1120 TAP_TAPCELL_ROW_4_113
*1121 TAP_TAPCELL_ROW_4_114
*1122 TAP_TAPCELL_ROW_4_115
*1123 TAP_TAPCELL_ROW_4_116
*1124 TAP_TAPCELL_ROW_4_117
*1125 TAP_TAPCELL_ROW_5_118
*1126 TAP_TAPCELL_ROW_5_119
*1127 TAP_TAPCELL_ROW_5_120
*1128 TAP_TAPCELL_ROW_5_121
*1129 TAP_TAPCELL_ROW_6_122
*1130 TAP_TAPCELL_ROW_6_123
*1131 TAP_TAPCELL_ROW_6_124
*1132 TAP_TAPCELL_ROW_6_125
*1133 TAP_TAPCELL_ROW_6_126
*1134 TAP_TAPCELL_ROW_7_127
*1135 TAP_TAPCELL_ROW_7_128
*1136 TAP_TAPCELL_ROW_7_129
*1137 TAP_TAPCELL_ROW_7_130
*1138 TAP_TAPCELL_ROW_8_131
*1139 TAP_TAPCELL_ROW_8_132
*1140 TAP_TAPCELL_ROW_8_133
*1141 TAP_TAPCELL_ROW_8_134
*1142 TAP_TAPCELL_ROW_8_135
*1143 TAP_TAPCELL_ROW_9_136
*1144 TAP_TAPCELL_ROW_9_137
*1145 TAP_TAPCELL_ROW_9_138
*1146 TAP_TAPCELL_ROW_9_139
*1147 _097_
*1148 _098_
*1149 _099_
*1150 _100_
*1151 _101_
*1152 _102_
*1153 _103_
*1154 _104_
*1155 _105_
*1156 _106_
*1157 _107_
*1158 _108_
*1159 _109_
*1160 _110_
*1161 _111_
*1162 _112_
*1163 _113_
*1164 _114_
*1165 _115_
*1166 _116_
*1167 _117_
*1168 _118_
*1169 _119_
*1170 _120_
*1171 _121_
*1172 _122_
*1173 _123_
*1174 _124_
*1175 _125_
*1176 _126_
*1177 _127_
*1178 _128_
*1179 _129_
*1180 _130_
*1181 _131_
*1182 _132_
*1183 _133_
*1184 _134_
*1185 _135_
*1186 _136_
*1187 _137_
*1188 _138_
*1189 _139_
*1190 _140_
*1191 _141_
*1192 _142_
*1193 _143_
*1194 _144_
*1195 _145_
*1196 _146_
*1197 _147_
*1198 _148_
*1199 _149_
*1200 _150_
*1201 _151_
*1202 _152_
*1203 _153_
*1204 _154_
*1205 _155_
*1206 _156_
*1207 _157_
*1208 _158_
*1209 _159_
*1210 _160_
*1211 _161_
*1212 _162_
*1213 _163_
*1214 _164_
*1215 _165_
*1216 _166_
*1217 _167_
*1218 _168_
*1219 _169_
*1220 _170_
*1221 _171_
*1222 _172_
*1223 _173_
*1224 _174_
*1225 _175_
*1226 _176_
*1227 _177_
*1228 _178_
*1229 _179_
*1230 _180_
*1231 _181_
*1232 _182_
*1233 _183_
*1234 _184_
*1235 _185_
*1236 _186_
*1237 _187_
*1238 _188_
*1239 _189_
*1240 _190_
*1241 _191_
*1242 _192_
*1243 _193_
*1244 _194_
*1245 _195_
*1246 _196_
*1247 _197_
*1248 _198_
*1249 _199_
*1250 _200_
*1251 _201_
*1252 _202_
*1253 _203_
*1254 _204_
*1255 _205_
*1256 _206_
*1257 _207_
*1258 _208_
*1259 _209_
*1260 _210_
*1261 _211_
*1262 _212_
*1263 _213_
*1264 _214_
*1265 _215_
*1266 _216_
*1267 _217_
*1268 _220_
*1269 _221_
*1270 _222_
*1271 _223_
*1272 clkbuf_0_clk
*1273 clkbuf_1_0__f_clk
*1274 clkbuf_1_1__f_clk
*1275 ita47_25
*1276 ita47_26
*1277 output1
*1278 output10
*1279 output11
*1280 output12
*1281 output13
*1282 output14
*1283 output15
*1284 output16
*1285 output17
*1286 output18
*1287 output19
*1288 output2
*1289 output20
*1290 output21
*1291 output22
*1292 output23
*1293 output24
*1294 output3
*1295 output4
*1296 output5
*1297 output6
*1298 output7
*1299 output8
*1300 output9

*PORTS
clk I
segm[0] O
segm[10] O
segm[11] O
segm[12] O
segm[13] O
segm[1] O
segm[2] O
segm[3] O
segm[4] O
segm[5] O
segm[6] O
segm[7] O
segm[8] O
segm[9] O
sel[0] O
sel[10] O
sel[11] O
sel[1] O
sel[2] O
sel[3] O
sel[4] O
sel[5] O
sel[6] O
sel[7] O
sel[8] O
sel[9] O

*D_NET *1 0.017913
*CONN
*P clk I
*I *1272:I I *D gf180mcu_fd_sc_mcu7t5v0__clkbuf_16
*I *182:I I *D gf180mcu_fd_sc_mcu7t5v0__antenna
*CAP
1 clk 0.00302925
2 *1272:I 0.000106587
3 *182:I 0
4 *1:17 0.00295529
5 *1:11 0.00587796
6 *1272:I *1177:A2 0
7 *1272:I *88:37 5.47431e-06
8 *1:17 *1163:A1 3.17547e-05
9 *1:17 *1167:A1 0.00017298
10 *1:17 *1184:A1 1.27019e-05
11 *1:17 *1184:A2 0.00128201
12 *1:17 *1185:A2 9.25324e-05
13 *1:17 *1188:I 1.53192e-05
14 *1:17 *1191:A1 0.000733788
15 *1:17 *1192:A1 0.000220983
16 *1:17 *1291:I 0
17 *1:17 *86:29 0.000147952
18 *1:17 *88:37 8.94086e-06
19 *1:17 *90:18 0.00153605
20 *1:17 *90:24 0.000874269
21 *1:17 *92:19 0.000386969
22 *1:17 *92:32 0.000284045
23 *1:17 *98:27 9.0311e-05
24 *1:17 *115:14 0
25 *1:17 *118:23 4.78275e-05
*RES
1 clk *1:11 29.956 
2 *1:11 *1:17 36.116 
3 *1:17 *182:I 4.5 
4 *1:17 *1272:I 5.436 
*END

*D_NET *2 0.00168291
*CONN
*P segm[0] O
*I *1275:ZN O *D gf180mcu_fd_sc_mcu7t5v0__tiel
*CAP
1 segm[0] 0.000760701
2 *1275:ZN 0.000760701
3 segm[0] segm[13] 0.000142953
4 segm[0] *1295:I 1.85523e-05
*RES
1 *1275:ZN segm[0] 11.312 
*END

*D_NET *3 0.000508646
*CONN
*P segm[10] O
*I *1277:Z O *D gf180mcu_fd_sc_mcu7t5v0__buf_8
*CAP
1 segm[10] 0.000254323
2 *1277:Z 0.000254323
*RES
1 *1277:Z segm[10] 11.34 
*END

*D_NET *4 0.00208516
*CONN
*P segm[11] O
*I *1288:Z O *D gf180mcu_fd_sc_mcu7t5v0__buf_8
*CAP
1 segm[11] 0.000972644
2 *1288:Z 0.000972644
3 segm[11] segm[8] 0.000139874
*RES
1 *1288:Z segm[11] 21.768 
*END

*D_NET *5 0.00263705
*CONN
*P segm[12] O
*I *1294:Z O *D gf180mcu_fd_sc_mcu7t5v0__buf_8
*CAP
1 segm[12] 0.00124859
2 *1294:Z 0.00124859
3 segm[12] segm[9] 0.000139874
4 segm[12] *1280:I 0
*RES
1 *1294:Z segm[12] 23.64 
*END

*D_NET *6 0.00163216
*CONN
*P segm[13] O
*I *1295:Z O *D gf180mcu_fd_sc_mcu7t5v0__buf_8
*CAP
1 segm[13] 0.000744604
2 *1295:Z 0.000744604
3 segm[0] segm[13] 0.000142953
*RES
1 *1295:Z segm[13] 11.104 
*END

*D_NET *7 0.00292906
*CONN
*P segm[1] O
*I *1296:Z O *D gf180mcu_fd_sc_mcu7t5v0__buf_8
*CAP
1 segm[1] 0.00137643
2 *1296:Z 0.00137643
3 segm[1] segm[4] 0.000134396
4 segm[1] *1296:I 4.18042e-05
5 segm[1] *1298:I 0
*RES
1 *1296:Z segm[1] 24.264 
*END

*D_NET *8 0.00108542
*CONN
*P segm[2] O
*I *1297:Z O *D gf180mcu_fd_sc_mcu7t5v0__buf_8
*CAP
1 segm[2] 0.000409442
2 *1297:Z 0.000409442
3 segm[2] sel[2] 0.000266535
*RES
1 *1297:Z segm[2] 12.692 
*END

*D_NET *9 0.00041822
*CONN
*P segm[3] O
*I *1276:ZN O *D gf180mcu_fd_sc_mcu7t5v0__tiel
*CAP
1 segm[3] 0.00020911
2 *1276:ZN 0.00020911
*RES
1 *1276:ZN segm[3] 10.924 
*END

*D_NET *10 0.00263172
*CONN
*P segm[4] O
*I *1298:Z O *D gf180mcu_fd_sc_mcu7t5v0__buf_8
*CAP
1 segm[4] 0.00118813
2 *1298:Z 0.00118813
3 segm[4] sel[4] 0.000121055
4 segm[1] segm[4] 0.000134396
*RES
1 *1298:Z segm[4] 24.056 
*END

*D_NET *11 0.000876856
*CONN
*P segm[5] O
*I *1299:Z O *D gf180mcu_fd_sc_mcu7t5v0__buf_8
*CAP
1 segm[5] 0.000403933
2 *1299:Z 0.000403933
3 segm[5] sel[2] 6.89904e-05
*RES