*SPEF "ieee 1481-1999"
*DESIGN "ita48"
*DATE "11:11:11 Fri 11 11, 1111"
*VENDOR "OpenRCX"
*PROGRAM "Parallel Extraction"
*VERSION "1.0"
*DESIGN_FLOW "NAME_SCOPE LOCAL" "PIN_CAP NONE"
*DIVIDER /
*DELIMITER :
*BUS_DELIMITER []
*T_UNIT 1 NS
*C_UNIT 1 PF
*R_UNIT 1 OHM
*L_UNIT 1 HENRY

*NAME_MAP
*1 clk
*2 segm[0]
*3 segm[10]
*4 segm[11]
*5 segm[12]
*6 segm[13]
*7 net25
*8 segm[2]
*9 segm[3]
*10 net26
*11 segm[5]
*12 segm[6]
*13 segm[7]
*14 segm[8]
*15 segm[9]
*16 sel[0]
*17 sel[10]
*18 sel[11]
*19 sel[1]
*20 sel[2]
*21 sel[3]
*22 sel[4]
*23 sel[5]
*24 sel[6]
*25 sel[7]
*26 sel[8]
*27 sel[9]
*30 _000_
*31 _001_
*32 _002_
*33 _003_
*34 _004_
*35 _005_
*36 _006_
*37 _007_
*38 _008_
*39 _009_
*40 _010_
*41 _011_
*42 _012_
*43 _013_
*44 _014_
*45 _015_
*46 _016_
*47 _017_
*48 _018_
*49 _019_
*50 _020_
*51 _021_
*52 _022_
*53 _023_
*54 _024_
*55 _025_
*56 _026_
*57 _027_
*58 _028_
*59 _029_
*60 _030_
*61 _031_
*62 _032_
*63 _033_
*64 _034_
*65 _035_
*66 _036_
*67 _037_
*68 _038_
*69 _039_
*70 _040_
*71 _041_
*72 _042_
*73 _043_
*74 _044_
*75 _045_
*76 _046_
*77 _047_
*78 _048_
*79 _049_
*80 _050_
*81 _051_
*82 _052_
*83 _053_
*84 _054_
*85 _055_
*86 _056_
*87 _057_
*88 _058_
*89 _059_
*90 _060_
*91 _061_
*92 _062_
*93 _063_
*94 _064_
*95 _065_
*96 _066_
*97 _067_
*98 _068_
*99 _069_
*100 _070_
*101 _071_
*102 _072_
*103 _073_
*104 _074_
*105 _075_
*106 _076_
*107 _077_
*108 _078_
*109 _079_
*110 _080_
*111 _081_
*112 _082_
*113 _083_
*114 clknet_0_clk
*115 clknet_1_0__leaf_clk
*116 clknet_1_1__leaf_clk
*117 dut48\.count\[0\]
*118 dut48\.count\[1\]
*119 dut48\.count\[2\]
*120 dut48\.count\[3\]
*121 net1
*122 net10
*123 net11
*124 net12
*125 net13
*126 net14
*127 net15
*128 net16
*129 net17
*130 net18
*131 net19
*132 net2
*133 net20
*134 net21
*135 net22
*136 net23
*137 net24
*138 net3
*139 net4
*140 net5
*141 net6
*142 net7
*143 net8
*144 net9
*145 ANTENNA__168__CLK
*146 ANTENNA__169__CLK
*147 ANTENNA__170__CLK
*148 ANTENNA__171__CLK
*149 ANTENNA__172__CLK
*150 ANTENNA__173__CLK
*151 ANTENNA__174__CLK
*152 ANTENNA__175__CLK
*153 ANTENNA__176__CLK
*154 ANTENNA__177__CLK
*155 ANTENNA__178__CLK
*156 ANTENNA__179__CLK
*157 ANTENNA__180__CLK
*158 ANTENNA__181__CLK
*159 ANTENNA__182__CLK
*160 ANTENNA__183__CLK
*161 ANTENNA__184__CLK
*162 ANTENNA__185__CLK
*163 ANTENNA__186__CLK
*164 ANTENNA__187__CLK
*165 ANTENNA__188__CLK
*166 ANTENNA__189__CLK
*167 ANTENNA__190__CLK
*168 ANTENNA_clkbuf_0_clk_I
*169 FILLER_0_0_104
*170 FILLER_0_0_120
*171 FILLER_0_0_124
*172 FILLER_0_0_126
*173 FILLER_0_0_131
*174 FILLER_0_0_135
*175 FILLER_0_0_164
*176 FILLER_0_0_168
*177 FILLER_0_0_172
*178 FILLER_0_0_176
*179 FILLER_0_0_2
*180 FILLER_0_0_206
*181 FILLER_0_0_240
*182 FILLER_0_0_274
*183 FILLER_0_0_308
*184 FILLER_0_0_342
*185 FILLER_0_0_346
*186 FILLER_0_0_348
*187 FILLER_0_0_36
*188 FILLER_0_0_70
*189 FILLER_0_10_101
*190 FILLER_0_10_107
*191 FILLER_0_10_171
*192 FILLER_0_10_177
*193 FILLER_0_10_2
*194 FILLER_0_10_241
*195 FILLER_0_10_247
*196 FILLER_0_10_311
*197 FILLER_0_10_317
*198 FILLER_0_10_34
*199 FILLER_0_10_37
*200 FILLER_0_11_136
*201 FILLER_0_11_142
*202 FILLER_0_11_2
*203 FILLER_0_11_206
*204 FILLER_0_11_212
*205 FILLER_0_11_276
*206 FILLER_0_11_282
*207 FILLER_0_11_346
*208 FILLER_0_11_348
*209 FILLER_0_11_66
*210 FILLER_0_11_72
*211 FILLER_0_12_101
*212 FILLER_0_12_107
*213 FILLER_0_12_171
*214 FILLER_0_12_177
*215 FILLER_0_12_2
*216 FILLER_0_12_241
*217 FILLER_0_12_247
*218 FILLER_0_12_311
*219 FILLER_0_12_317
*220 FILLER_0_12_34
*221 FILLER_0_12_37
*222 FILLER_0_13_104
*223 FILLER_0_13_135
*224 FILLER_0_13_139
*225 FILLER_0_13_142
*226 FILLER_0_13_150
*227 FILLER_0_13_154
*228 FILLER_0_13_184
*229 FILLER_0_13_188
*230 FILLER_0_13_2
*231 FILLER_0_13_204
*232 FILLER_0_13_208
*233 FILLER_0_13_212
*234 FILLER_0_13_276
*235 FILLER_0_13_282
*236 FILLER_0_13_346
*237 FILLER_0_13_348
*238 FILLER_0_13_66
*239 FILLER_0_13_72
*240 FILLER_0_14_101
*241 FILLER_0_14_107
*242 FILLER_0_14_111
*243 FILLER_0_14_113
*244 FILLER_0_14_157
*245 FILLER_0_14_161
*246 FILLER_0_14_169
*247 FILLER_0_14_173
*248 FILLER_0_14_177
*249 FILLER_0_14_191
*250 FILLER_0_14_2
*251 FILLER_0_14_223
*252 FILLER_0_14_239
*253 FILLER_0_14_243
*254 FILLER_0_14_247
*255 FILLER_0_14_311
*256 FILLER_0_14_317
*257 FILLER_0_14_34
*258 FILLER_0_14_37
*259 FILLER_0_15_122
*260 FILLER_0_15_136
*261 FILLER_0_15_142
*262 FILLER_0_15_144
*263 FILLER_0_15_171
*264 FILLER_0_15_2
*265 FILLER_0_15_202
*266 FILLER_0_15_206
*267 FILLER_0_15_212
*268 FILLER_0_15_276
*269 FILLER_0_15_282
*270 FILLER_0_15_346
*271 FILLER_0_15_348
*272 FILLER_0_15_66
*273 FILLER_0_15_72
*274 FILLER_0_15_80
*275 FILLER_0_15_84
*276 FILLER_0_16_101
*277 FILLER_0_16_107
*278 FILLER_0_16_111
*279 FILLER_0_16_121
*280 FILLER_0_16_125
*281 FILLER_0_16_134
*282 FILLER_0_16_150
*283 FILLER_0_16_159
*284 FILLER_0_16_163
*285 FILLER_0_16_165
*286 FILLER_0_16_174
*287 FILLER_0_16_177
*288 FILLER_0_16_193
*289 FILLER_0_16_201
*290 FILLER_0_16_232
*291 FILLER_0_16_236
*292 FILLER_0_16_244
*293 FILLER_0_16_247
*294 FILLER_0_16_28
*295 FILLER_0_16_311
*296 FILLER_0_16_317
*297 FILLER_0_16_32
*298 FILLER_0_16_34
*299 FILLER_0_16_37
*300 FILLER_0_17_111
*301 FILLER_0_17_115
*302 FILLER_0_17_131
*303 FILLER_0_17_139
*304 FILLER_0_17_142
*305 FILLER_0_17_158
*306 FILLER_0_17_167
*307 FILLER_0_17_175
*308 FILLER_0_17_179
*309 FILLER_0_17_187
*310 FILLER_0_17_195
*311 FILLER_0_17_199
*312 FILLER_0_17_2
*313 FILLER_0_17_201
*314 FILLER_0_17_241
*315 FILLER_0_17_245
*316 FILLER_0_17_277
*317 FILLER_0_17_279
*318 FILLER_0_17_282
*319 FILLER_0_17_314
*320 FILLER_0_17_322
*321 FILLER_0_17_66
*322 FILLER_0_17_72
*323 FILLER_0_17_80
*324 FILLER_0_18_101
*325 FILLER_0_18_107
*326 FILLER_0_18_111
*327 FILLER_0_18_113
*328 FILLER_0_18_131
*329 FILLER_0_18_138
*330 FILLER_0_18_149
*331 FILLER_0_18_157
*332 FILLER_0_18_166
*333 FILLER_0_18_174
*334 FILLER_0_18_177
*335 FILLER_0_18_190
*336 FILLER_0_18_206
*337 FILLER_0_18_208
*338 FILLER_0_18_227
*339 FILLER_0_18_243
*340 FILLER_0_18_247
*341 FILLER_0_18_28
*342 FILLER_0_18_311
*343 FILLER_0_18_317
*344 FILLER_0_18_32
*345 FILLER_0_18_321
*346 FILLER_0_18_34
*347 FILLER_0_18_37
*348 FILLER_0_19_104
*349 FILLER_0_19_133
*350 FILLER_0_19_142
*351 FILLER_0_19_146
*352 FILLER_0_19_197
*353 FILLER_0_19_2
*354 FILLER_0_19_205
*355 FILLER_0_19_209
*356 FILLER_0_19_212
*357 FILLER_0_19_216
*358 FILLER_0_19_232
*359 FILLER_0_19_264
*360 FILLER_0_19_282
*361 FILLER_0_19_346
*362 FILLER_0_19_348
*363 FILLER_0_19_66
*364 FILLER_0_19_72
*365 FILLER_0_1_136
*366 FILLER_0_1_142
*367 FILLER_0_1_174
*368 FILLER_0_1_178
*369 FILLER_0_1_180
*370 FILLER_0_1_2
*371 FILLER_0_1_207
*372 FILLER_0_1_209
*373 FILLER_0_1_212
*374 FILLER_0_1_276
*375 FILLER_0_1_282
*376 FILLER_0_1_346
*377 FILLER_0_1_348
*378 FILLER_0_1_66
*379 FILLER_0_1_72
*380 FILLER_0_20_101
*381 FILLER_0_20_107
*382 FILLER_0_20_115
*383 FILLER_0_20_128
*384 FILLER_0_20_135
*385 FILLER_0_20_174
*386 FILLER_0_20_2
*387 FILLER_0_20_206
*388 FILLER_0_20_210
*389 FILLER_0_20_243
*390 FILLER_0_20_247
*391 FILLER_0_20_251
*392 FILLER_0_20_317
*393 FILLER_0_20_34
*394 FILLER_0_20_37
*395 FILLER_0_21_115
*396 FILLER_0_21_119
*397 FILLER_0_21_132
*398 FILLER_0_21_2
*399 FILLER_0_21_202
*400 FILLER_0_21_212
*401 FILLER_0_21_242
*402 FILLER_0_21_246
*403 FILLER_0_21_278
*404 FILLER_0_21_282
*405 FILLER_0_21_314
*406 FILLER_0_21_322
*407 FILLER_0_21_66
*408 FILLER_0_21_72
*409 FILLER_0_21_80
*410 FILLER_0_21_84
*411 FILLER_0_22_101
*412 FILLER_0_22_107
*413 FILLER_0_22_109
*414 FILLER_0_22_177
*415 FILLER_0_22_181
*416 FILLER_0_22_2
*417 FILLER_0_22_232
*418 FILLER_0_22_240
*419 FILLER_0_22_244
*420 FILLER_0_22_247
*421 FILLER_0_22_311
*422 FILLER_0_22_317
*423 FILLER_0_22_321
*424 FILLER_0_22_34
*425 FILLER_0_22_37
*426 FILLER_0_23_116
*427 FILLER_0_23_142
*428 FILLER_0_23_152
*429 FILLER_0_23_165
*430 FILLER_0_23_173
*431 FILLER_0_23_177
*432 FILLER_0_23_2
*433 FILLER_0_23_200
*434 FILLER_0_23_208
*435 FILLER_0_23_238
*436 FILLER_0_23_270
*437 FILLER_0_23_278
*438 FILLER_0_23_282
*439 FILLER_0_23_314
*440 FILLER_0_23_322
*441 FILLER_0_23_66
*442 FILLER_0_23_72
*443 FILLER_0_23_80
*444 FILLER_0_23_84
*445 FILLER_0_23_86
*446 FILLER_0_24_101
*447 FILLER_0_24_107
*448 FILLER_0_24_115
*449 FILLER_0_24_118
*450 FILLER_0_24_134
*451 FILLER_0_24_144
*452 FILLER_0_24_159
*453 FILLER_0_24_2
*454 FILLER_0_24_206
*455 FILLER_0_24_210
*456 FILLER_0_24_242
*457 FILLER_0_24_244
*458 FILLER_0_24_247
*459 FILLER_0_24_311
*460 FILLER_0_24_317
*461 FILLER_0_24_321
*462 FILLER_0_24_34
*463 FILLER_0_24_37
*464 FILLER_0_25_120
*465 FILLER_0_25_124
*466 FILLER_0_25_171
*467 FILLER_0_25_175
*468 FILLER_0_25_207
*469 FILLER_0_25_209
*470 FILLER_0_25_212
*471 FILLER_0_25_220
*472 FILLER_0_25_226
*473 FILLER_0_25_258
*474 FILLER_0_25_274
*475 FILLER_0_25_278
*476 FILLER_0_25_28
*477 FILLER_0_25_282
*478 FILLER_0_25_346
*479 FILLER_0_25_348
*480 FILLER_0_25_60
*481 FILLER_0_25_68
*482 FILLER_0_25_72
*483 FILLER_0_25_88
*484 FILLER_0_26_107
*485 FILLER_0_26_119
*486 FILLER_0_26_135
*487 FILLER_0_26_139
*488 FILLER_0_26_141
*489 FILLER_0_26_148
*490 FILLER_0_26_164
*491 FILLER_0_26_172
*492 FILLER_0_26_174
*493 FILLER_0_26_185
*494 FILLER_0_26_2
*495 FILLER_0_26_201
*496 FILLER_0_26_209
*497 FILLER_0_26_211
*498 FILLER_0_26_228
*499 FILLER_0_26_236
*500 FILLER_0_26_244
*501 FILLER_0_26_247
*502 FILLER_0_26_311
*503 FILLER_0_26_317
*504 FILLER_0_26_34
*505 FILLER_0_26_37
*506 FILLER_0_26_69
*507 FILLER_0_26_85
*508 FILLER_0_26_93
*509 FILLER_0_26_97
*510 FILLER_0_26_99
*511 FILLER_0_27_124
*512 FILLER_0_27_128
*513 FILLER_0_27_136
*514 FILLER_0_27_142
*515 FILLER_0_27_157
*516 FILLER_0_27_161
*517 FILLER_0_27_198
*518 FILLER_0_27_202
*519 FILLER_0_27_241
*520 FILLER_0_27_245
*521 FILLER_0_27_277
*522 FILLER_0_27_279
*523 FILLER_0_27_28
*524 FILLER_0_27_282
*525 FILLER_0_27_314
*526 FILLER_0_27_322
*527 FILLER_0_27_60
*528 FILLER_0_27_68
*529 FILLER_0_27_72
*530 FILLER_0_27_88
*531 FILLER_0_28_101
*532 FILLER_0_28_107
*533 FILLER_0_28_111
*534 FILLER_0_28_124
*535 FILLER_0_28_126
*536 FILLER_0_28_169
*537 FILLER_0_28_173
*538 FILLER_0_28_177
*539 FILLER_0_28_181
*540 FILLER_0_28_200
*541 FILLER_0_28_204
*542 FILLER_0_28_234
*543 FILLER_0_28_238
*544 FILLER_0_28_242
*545 FILLER_0_28_244
*546 FILLER_0_28_247
*547 FILLER_0_28_28
*548 FILLER_0_28_311
*549 FILLER_0_28_317
*550 FILLER_0_28_32
*551 FILLER_0_28_321
*552 FILLER_0_28_34
*553 FILLER_0_28_37
*554 FILLER_0_29_136
*555 FILLER_0_29_171
*556 FILLER_0_29_175
*557 FILLER_0_29_205
*558 FILLER_0_29_209
*559 FILLER_0_29_212
*560 FILLER_0_29_225
*561 FILLER_0_29_257
*562 FILLER_0_29_273
*563 FILLER_0_29_277
*564 FILLER_0_29_279
*565 FILLER_0_29_28
*566 FILLER_0_29_282
*567 FILLER_0_29_314
*568 FILLER_0_29_322
*569 FILLER_0_29_60
*570 FILLER_0_29_68
*571 FILLER_0_29_72
*572 FILLER_0_2_101
*573 FILLER_0_2_107
*574 FILLER_0_2_171
*575 FILLER_0_2_2
*576 FILLER_0_2_203
*577 FILLER_0_2_235
*578 FILLER_0_2_243
*579 FILLER_0_2_247
*580 FILLER_0_2_311
*581 FILLER_0_2_317
*582 FILLER_0_2_34
*583 FILLER_0_2_37
*584 FILLER_0_30_101
*585 FILLER_0_30_107
*586 FILLER_0_30_171
*587 FILLER_0_30_177
*588 FILLER_0_30_241
*589 FILLER_0_30_247
*590 FILLER_0_30_28
*591 FILLER_0_30_311
*592 FILLER_0_30_317
*593 FILLER_0_30_32
*594 FILLER_0_30_34
*595 FILLER_0_30_37
*596 FILLER_0_31_136
*597 FILLER_0_31_142
*598 FILLER_0_31_2
*599 FILLER_0_31_206
*600 FILLER_0_31_212
*601 FILLER_0_31_276
*602 FILLER_0_31_282
*603 FILLER_0_31_346
*604 FILLER_0_31_348
*605 FILLER_0_31_66
*606 FILLER_0_31_72
*607 FILLER_0_32_101
*608 FILLER_0_32_107
*609 FILLER_0_32_171
*610 FILLER_0_32_177
*611 FILLER_0_32_2
*612 FILLER_0_32_241
*613 FILLER_0_32_247
*614 FILLER_0_32_311
*615 FILLER_0_32_317
*616 FILLER_0_32_34
*617 FILLER_0_32_37
*618 FILLER_0_33_136
*619 FILLER_0_33_142
*620 FILLER_0_33_2
*621 FILLER_0_33_206
*622 FILLER_0_33_212
*623 FILLER_0_33_276
*624 FILLER_0_33_282
*625 FILLER_0_33_346
*626 FILLER_0_33_348
*627 FILLER_0_33_66
*628 FILLER_0_33_72
*629 FILLER_0_34_101
*630 FILLER_0_34_107
*631 FILLER_0_34_171
*632 FILLER_0_34_177
*633 FILLER_0_34_2
*634 FILLER_0_34_241
*635 FILLER_0_34_247
*636 FILLER_0_34_311
*637 FILLER_0_34_317
*638 FILLER_0_34_34
*639 FILLER_0_34_37
*640 FILLER_0_35_136
*641 FILLER_0_35_142
*642 FILLER_0_35_2
*643 FILLER_0_35_206
*644 FILLER_0_35_212
*645 FILLER_0_35_276
*646 FILLER_0_35_282
*647 FILLER_0_35_346
*648 FILLER_0_35_348
*649 FILLER_0_35_66
*650 FILLER_0_35_72
*651 FILLER_0_36_101
*652 FILLER_0_36_107
*653 FILLER_0_36_171
*654 FILLER_0_36_177
*655 FILLER_0_36_2
*656 FILLER_0_36_241
*657 FILLER_0_36_247
*658 FILLER_0_36_311
*659 FILLER_0_36_317
*660 FILLER_0_36_34
*661 FILLER_0_36_37
*662 FILLER_0_37_136
*663 FILLER_0_37_142
*664 FILLER_0_37_2
*665 FILLER_0_37_206
*666 FILLER_0_37_212
*667 FILLER_0_37_276
*668 FILLER_0_37_282
*669 FILLER_0_37_346
*670 FILLER_0_37_348
*671 FILLER_0_37_66
*672 FILLER_0_37_72
*673 FILLER_0_38_101
*674 FILLER_0_38_107
*675 FILLER_0_38_171
*676 FILLER_0_38_177
*677 FILLER_0_38_2
*678 FILLER_0_38_241
*679 FILLER_0_38_247
*680 FILLER_0_38_311
*681 FILLER_0_38_317
*682 FILLER_0_38_34
*683 FILLER_0_38_37
*684 FILLER_0_39_136
*685 FILLER_0_39_142
*686 FILLER_0_39_2
*687 FILLER_0_39_206
*688 FILLER_0_39_212
*689 FILLER_0_39_276
*690 FILLER_0_39_282
*691 FILLER_0_39_346
*692 FILLER_0_39_348
*693 FILLER_0_39_66
*694 FILLER_0_39_72
*695 FILLER_0_3_136
*696 FILLER_0_3_142
*697 FILLER_0_3_2
*698 FILLER_0_3_206
*699 FILLER_0_3_212
*700 FILLER_0_3_276
*701 FILLER_0_3_282
*702 FILLER_0_3_314
*703 FILLER_0_3_330
*704 FILLER_0_3_338
*705 FILLER_0_3_342
*706 FILLER_0_3_344
*707 FILLER_0_3_66
*708 FILLER_0_3_72
*709 FILLER_0_40_101
*710 FILLER_0_40_107
*711 FILLER_0_40_171
*712 FILLER_0_40_177
*713 FILLER_0_40_2
*714 FILLER_0_40_241
*715 FILLER_0_40_247
*716 FILLER_0_40_311
*717 FILLER_0_40_317
*718 FILLER_0_40_34
*719 FILLER_0_40_37
*720 FILLER_0_41_136
*721 FILLER_0_41_142
*722 FILLER_0_41_2
*723 FILLER_0_41_206
*724 FILLER_0_41_212
*725 FILLER_0_41_276
*726 FILLER_0_41_282
*727 FILLER_0_41_346
*728 FILLER_0_41_348
*729 FILLER_0_41_66
*730 FILLER_0_41_72
*731 FILLER_0_42_101
*732 FILLER_0_42_107
*733 FILLER_0_42_171
*734 FILLER_0_42_177
*735 FILLER_0_42_2
*736 FILLER_0_42_241
*737 FILLER_0_42_247
*738 FILLER_0_42_311
*739 FILLER_0_42_317
*740 FILLER_0_42_34
*741 FILLER_0_42_37
*742 FILLER_0_43_136
*743 FILLER_0_43_142
*744 FILLER_0_43_158
*745 FILLER_0_43_162
*746 FILLER_0_43_189
*747 FILLER_0_43_2
*748 FILLER_0_43_205
*749 FILLER_0_43_209
*750 FILLER_0_43_212
*751 FILLER_0_43_276
*752 FILLER_0_43_282
*753 FILLER_0_43_346
*754 FILLER_0_43_348
*755 FILLER_0_43_66
*756 FILLER_0_43_72
*757 FILLER_0_44_104
*758 FILLER_0_44_138
*759 FILLER_0_44_142
*760 FILLER_0_44_172
*761 FILLER_0_44_176
*762 FILLER_0_44_2
*763 FILLER_0_44_232
*764 FILLER_0_44_236
*765 FILLER_0_44_240
*766 FILLER_0_44_274
*767 FILLER_0_44_308
*768 FILLER_0_44_342
*769 FILLER_0_44_346
*770 FILLER_0_44_348
*771 FILLER_0_44_36
*772 FILLER_0_44_70
*773 FILLER_0_4_101
*774 FILLER_0_4_107
*775 FILLER_0_4_171
*776 FILLER_0_4_177
*777 FILLER_0_4_2
*778 FILLER_0_4_241
*779 FILLER_0_4_247
*780 FILLER_0_4_311
*781 FILLER_0_4_317
*782 FILLER_0_4_34
*783 FILLER_0_4_37
*784 FILLER_0_5_136
*785 FILLER_0_5_142
*786 FILLER_0_5_2
*787 FILLER_0_5_206
*788 FILLER_0_5_212
*789 FILLER_0_5_276
*790 FILLER_0_5_282
*791 FILLER_0_5_346
*792 FILLER_0_5_348
*793 FILLER_0_5_66
*794 FILLER_0_5_72
*795 FILLER_0_6_101
*796 FILLER_0_6_107
*797 FILLER_0_6_171
*798 FILLER_0_6_177
*799 FILLER_0_6_2
*800 FILLER_0_6_241
*801 FILLER_0_6_247
*802 FILLER_0_6_311
*803 FILLER_0_6_317
*804 FILLER_0_6_34
*805 FILLER_0_6_37
*806 FILLER_0_7_136
*807 FILLER_0_7_142
*808 FILLER_0_7_2
*809 FILLER_0_7_206
*810 FILLER_0_7_212
*811 FILLER_0_7_276
*812 FILLER_0_7_282
*813 FILLER_0_7_346
*814 FILLER_0_7_348
*815 FILLER_0_7_66
*816 FILLER_0_7_72
*817 FILLER_0_8_101
*818 FILLER_0_8_107
*819 FILLER_0_8_171
*820 FILLER_0_8_177
*821 FILLER_0_8_2
*822 FILLER_0_8_241
*823 FILLER_0_8_247
*824 FILLER_0_8_311
*825 FILLER_0_8_317
*826 FILLER_0_8_34
*827 FILLER_0_8_37
*828 FILLER_0_9_136
*829 FILLER_0_9_142
*830 FILLER_0_9_2
*831 FILLER_0_9_206
*832 FILLER_0_9_212
*833 FILLER_0_9_276
*834 FILLER_0_9_282
*835 FILLER_0_9_346
*836 FILLER_0_9_348
*837 FILLER_0_9_66
*838 FILLER_0_9_72
*839 PHY_EDGE_ROW_0_Left_45
*840 PHY_EDGE_ROW_0_Right_0
*841 PHY_EDGE_ROW_10_Left_55
*842 PHY_EDGE_ROW_10_Right_10
*843 PHY_EDGE_ROW_11_Left_56
*844 PHY_EDGE_ROW_11_Right_11
*845 PHY_EDGE_ROW_12_Left_57
*846 PHY_EDGE_ROW_12_Right_12
*847 PHY_EDGE_ROW_13_Left_58
*848 PHY_EDGE_ROW_13_Right_13
*849 PHY_EDGE_ROW_14_Left_59
*850 PHY_EDGE_ROW_14_Right_14
*851 PHY_EDGE_ROW_15_Left_60
*852 PHY_EDGE_ROW_15_Right_15
*853 PHY_EDGE_ROW_16_Left_61
*854 PHY_EDGE_ROW_16_Right_16
*855 PHY_EDGE_ROW_17_Left_62
*856 PHY_EDGE_ROW_17_Right_17
*857 PHY_EDGE_ROW_18_Left_63
*858 PHY_EDGE_ROW_18_Right_18
*859 PHY_EDGE_ROW_19_Left_64
*860 PHY_EDGE_ROW_19_Right_19
*861 PHY_EDGE_ROW_1_Left_46
*862 PHY_EDGE_ROW_1_Right_1
*863 PHY_EDGE_ROW_20_Left_65
*864 PHY_EDGE_ROW_20_Right_20
*865 PHY_EDGE_ROW_21_Left_66
*866 PHY_EDGE_ROW_21_Right_21
*867 PHY_EDGE_ROW_22_Left_67
*868 PHY_EDGE_ROW_22_Right_22
*869 PHY_EDGE_ROW_23_Left_68
*870 PHY_EDGE_ROW_23_Right_23
*871 PHY_EDGE_ROW_24_Left_69
*872 PHY_EDGE_ROW_24_Right_24
*873 PHY_EDGE_ROW_25_Left_70
*874 PHY_EDGE_ROW_25_Right_25
*875 PHY_EDGE_ROW_26_Left_71
*876 PHY_EDGE_ROW_26_Right_26
*877 PHY_EDGE_ROW_27_Left_72
*878 PHY_EDGE_ROW_27_Right_27
*879 PHY_EDGE_ROW_28_Left_73
*880 PHY_EDGE_ROW_28_Right_28
*881 PHY_EDGE_ROW_29_Left_74
*882 PHY_EDGE_ROW_29_Right_29
*883 PHY_EDGE_ROW_2_Left_47
*884 PHY_EDGE_ROW_2_Right_2
*885 PHY_EDGE_ROW_30_Left_75
*886 PHY_EDGE_ROW_30_Right_30
*887 PHY_EDGE_ROW_31_Left_76
*888 PHY_EDGE_ROW_31_Right_31
*889 PHY_EDGE_ROW_32_Left_77
*890 PHY_EDGE_ROW_32_Right_32
*891 PHY_EDGE_ROW_33_Left_78
*892 PHY_EDGE_ROW_33_Right_33
*893 PHY_EDGE_ROW_34_Left_79
*894 PHY_EDGE_ROW_34_Right_34
*895 PHY_EDGE_ROW_35_Left_80
*896 PHY_EDGE_ROW_35_Right_35
*897 PHY_EDGE_ROW_36_Left_81
*898 PHY_EDGE_ROW_36_Right_36
*899 PHY_EDGE_ROW_37_Left_82
*900 PHY_EDGE_ROW_37_Right_37
*901 PHY_EDGE_ROW_38_Left_83
*902 PHY_EDGE_ROW_38_Right_38
*903 PHY_EDGE_ROW_39_Left_84
*904 PHY_EDGE_ROW_39_Right_39
*905 PHY_EDGE_ROW_3_Left_48
*906 PHY_EDGE_ROW_3_Right_3
*907 PHY_EDGE_ROW_40_Left_85
*908 PHY_EDGE_ROW_40_Right_40
*909 PHY_EDGE_ROW_41_Left_86
*910 PHY_EDGE_ROW_41_Right_41
*911 PHY_EDGE_ROW_42_Left_87
*912 PHY_EDGE_ROW_42_Right_42
*913 PHY_EDGE_ROW_43_Left_88
*914 PHY_EDGE_ROW_43_Right_43
*915 PHY_EDGE_ROW_44_Left_89
*916 PHY_EDGE_ROW_44_Right_44
*917 PHY_EDGE_ROW_4_Left_49
*918 PHY_EDGE_ROW_4_Right_4
*919 PHY_EDGE_ROW_5_Left_50
*920 PHY_EDGE_ROW_5_Right_5
*921 PHY_EDGE_ROW_6_Left_51
*922 PHY_EDGE_ROW_6_Right_6
*923 PHY_EDGE_ROW_7_Left_52
*924 PHY_EDGE_ROW_7_Right_7
*925 PHY_EDGE_ROW_8_Left_53
*926 PHY_EDGE_ROW_8_Right_8
*927 PHY_EDGE_ROW_9_Left_54
*928 PHY_EDGE_ROW_9_Right_9
*929 TAP_TAPCELL_ROW_0_90
*930 TAP_TAPCELL_ROW_0_91
*931 TAP_TAPCELL_ROW_0_92
*932 TAP_TAPCELL_ROW_0_93
*933 TAP_TAPCELL_ROW_0_94
*934 TAP_TAPCELL_ROW_0_95
*935 TAP_TAPCELL_ROW_0_96
*936 TAP_TAPCELL_ROW_0_97
*937 TAP_TAPCELL_ROW_0_98
*938 TAP_TAPCELL_ROW_0_99
*939 TAP_TAPCELL_ROW_10_140
*940 TAP_TAPCELL_ROW_10_141
*941 TAP_TAPCELL_ROW_10_142
*942 TAP_TAPCELL_ROW_10_143
*943 TAP_TAPCELL_ROW_10_144
*944 TAP_TAPCELL_ROW_11_145
*945 TAP_TAPCELL_ROW_11_146
*946 TAP_TAPCELL_ROW_11_147
*947 TAP_TAPCELL_ROW_11_148
*948 TAP_TAPCELL_ROW_12_149
*949 TAP_TAPCELL_ROW_12_150
*950 TAP_TAPCELL_ROW_12_151
*951 TAP_TAPCELL_ROW_12_152
*952 TAP_TAPCELL_ROW_12_153
*953 TAP_TAPCELL_ROW_13_154
*954 TAP_TAPCELL_ROW_13_155
*955 TAP_TAPCELL_ROW_13_156
*956 TAP_TAPCELL_ROW_13_157
*957 TAP_TAPCELL_ROW_14_158
*958 TAP_TAPCELL_ROW_14_159
*959 TAP_TAPCELL_ROW_14_160
*960 TAP_TAPCELL_ROW_14_161
*961 TAP_TAPCELL_ROW_14_162
*962 TAP_TAPCELL_ROW_15_163
*963 TAP_TAPCELL_ROW_15_164
*964 TAP_TAPCELL_ROW_15_165
*965 TAP_TAPCELL_ROW_15_166
*966 TAP_TAPCELL_ROW_16_167
*967 TAP_TAPCELL_ROW_16_168
*968 TAP_TAPCELL_ROW_16_169
*969 TAP_TAPCELL_ROW_16_170
*970 TAP_TAPCELL_ROW_16_171
*971 TAP_TAPCELL_ROW_17_172
*972 TAP_TAPCELL_ROW_17_173
*973 TAP_TAPCELL_ROW_17_174
*974 TAP_TAPCELL_ROW_17_175
*975 TAP_TAPCELL_ROW_18_176
*976 TAP_TAPCELL_ROW_18_177
*977 TAP_TAPCELL_ROW_18_178
*978 TAP_TAPCELL_ROW_18_179
*979 TAP_TAPCELL_ROW_18_180
*980 TAP_TAPCELL_ROW_19_181
*981 TAP_TAPCELL_ROW_19_182
*982 TAP_TAPCELL_ROW_19_183
*983 TAP_TAPCELL_ROW_19_184
*984 TAP_TAPCELL_ROW_1_100
*985 TAP_TAPCELL_ROW_1_101
*986 TAP_TAPCELL_ROW_1_102
*987 TAP_TAPCELL_ROW_1_103
*988 TAP_TAPCELL_ROW_20_185
*989 TAP_TAPCELL_ROW_20_186
*990 TAP_TAPCELL_ROW_20_187
*991 TAP_TAPCELL_ROW_20_188
*992 TAP_TAPCELL_ROW_20_189
*993 TAP_TAPCELL_ROW_21_190
*994 TAP_TAPCELL_ROW_21_191
*995 TAP_TAPCELL_ROW_21_192
*996 TAP_TAPCELL_ROW_21_193
*997 TAP_TAPCELL_ROW_22_194
*998 TAP_TAPCELL_ROW_22_195
*999 TAP_TAPCELL_ROW_22_196
*1000 TAP_TAPCELL_ROW_22_197
*1001 TAP_TAPCELL_ROW_22_198
*1002 TAP_TAPCELL_ROW_23_199
*1003 TAP_TAPCELL_ROW_23_200
*1004 TAP_TAPCELL_ROW_23_201
*1005 TAP_TAPCELL_ROW_23_202
*1006 TAP_TAPCELL_ROW_24_203
*1007 TAP_TAPCELL_ROW_24_204
*1008 TAP_TAPCELL_ROW_24_205
*1009 TAP_TAPCELL_ROW_24_206
*1010 TAP_TAPCELL_ROW_24_207
*1011 TAP_TAPCELL_ROW_25_208
*1012 TAP_TAPCELL_ROW_25_209
*1013 TAP_TAPCELL_ROW_25_210
*1014 TAP_TAPCELL_ROW_25_211
*1015 TAP_TAPCELL_ROW_26_212
*1016 TAP_TAPCELL_ROW_26_213
*1017 TAP_TAPCELL_ROW_26_214
*1018 TAP_TAPCELL_ROW_26_215
*1019 TAP_TAPCELL_ROW_26_216
*1020 TAP_TAPCELL_ROW_27_217
*1021 TAP_TAPCELL_ROW_27_218
*1022 TAP_TAPCELL_ROW_27_219
*1023 TAP_TAPCELL_ROW_27_220
*1024 TAP_TAPCELL_ROW_28_221
*1025 TAP_TAPCELL_ROW_28_222
*1026 TAP_TAPCELL_ROW_28_223
*1027 TAP_TAPCELL_ROW_28_224
*1028 TAP_TAPCELL_ROW_28_225
*1029 TAP_TAPCELL_ROW_29_226
*1030 TAP_TAPCELL_ROW_29_227
*1031 TAP_TAPCELL_ROW_29_228
*1032 TAP_TAPCELL_ROW_29_229
*1033 TAP_TAPCELL_ROW_2_104
*1034 TAP_TAPCELL_ROW_2_105
*1035 TAP_TAPCELL_ROW_2_106
*1036 TAP_TAPCELL_ROW_2_107
*1037 TAP_TAPCELL_ROW_2_108
*1038 TAP_TAPCELL_ROW_30_230
*1039 TAP_TAPCELL_ROW_30_231
*1040 TAP_TAPCELL_ROW_30_232
*1041 TAP_TAPCELL_ROW_30_233
*1042 TAP_TAPCELL_ROW_30_234
*1043 TAP_TAPCELL_ROW_31_235
*1044 TAP_TAPCELL_ROW_31_236
*1045 TAP_TAPCELL_ROW_31_237
*1046 TAP_TAPCELL_ROW_31_238
*1047 TAP_TAPCELL_ROW_32_239
*1048 TAP_TAPCELL_ROW_32_240
*1049 TAP_TAPCELL_ROW_32_241
*1050 TAP_TAPCELL_ROW_32_242
*1051 TAP_TAPCELL_ROW_32_243
*1052 TAP_TAPCELL_ROW_33_244
*1053 TAP_TAPCELL_ROW_33_245
*1054 TAP_TAPCELL_ROW_33_246
*1055 TAP_TAPCELL_ROW_33_247
*1056 TAP_TAPCELL_ROW_34_248
*1057 TAP_TAPCELL_ROW_34_249
*1058 TAP_TAPCELL_ROW_34_250
*1059 TAP_TAPCELL_ROW_34_251
*1060 TAP_TAPCELL_ROW_34_252
*1061 TAP_TAPCELL_ROW_35_253
*1062 TAP_TAPCELL_ROW_35_254
*1063 TAP_TAPCELL_ROW_35_255
*1064 TAP_TAPCELL_ROW_35_256
*1065 TAP_TAPCELL_ROW_36_257
*1066 TAP_TAPCELL_ROW_36_258
*1067 TAP_TAPCELL_ROW_36_259
*1068 TAP_TAPCELL_ROW_36_260
*1069 TAP_TAPCELL_ROW_36_261
*1070 TAP_TAPCELL_ROW_37_262
*1071 TAP_TAPCELL_ROW_37_263
*1072 TAP_TAPCELL_ROW_37_264
*1073 TAP_TAPCELL_ROW_37_265
*1074 TAP_TAPCELL_ROW_38_266
*1075 TAP_TAPCELL_ROW_38_267
*1076 TAP_TAPCELL_ROW_38_268
*1077 TAP_TAPCELL_ROW_38_269
*1078 TAP_TAPCELL_ROW_38_270
*1079 TAP_TAPCELL_ROW_39_271
*1080 TAP_TAPCELL_ROW_39_272
*1081 TAP_TAPCELL_ROW_39_273
*1082 TAP_TAPCELL_ROW_39_274
*1083 TAP_TAPCELL_ROW_3_109
*1084 TAP_TAPCELL_ROW_3_110
*1085 TAP_TAPCELL_ROW_3_111
*1086 TAP_TAPCELL_ROW_3_112
*1087 TAP_TAPCELL_ROW_40_275
*1088 TAP_TAPCELL_ROW_40_276
*1089 TAP_TAPCELL_ROW_40_277
*1090 TAP_TAPCELL_ROW_40_278
*1091 TAP_TAPCELL_ROW_40_279
*1092 TAP_TAPCELL_ROW_41_280
*1093 TAP_TAPCELL_ROW_41_281
*1094 TAP_TAPCELL_ROW_41_282
*1095 TAP_TAPCELL_ROW_41_283
*1096 TAP_TAPCELL_ROW_42_284
*1097 TAP_TAPCELL_ROW_42_285
*1098 TAP_TAPCELL_ROW_42_286
*1099 TAP_TAPCELL_ROW_42_287
*1100 TAP_TAPCELL_ROW_42_288
*1101 TAP_TAPCELL_ROW_43_289
*1102 TAP_TAPCELL_ROW_43_290
*1103 TAP_TAPCELL_ROW_43_291
*1104 TAP_TAPCELL_ROW_43_292
*1105 TAP_TAPCELL_ROW_44_293
*1106 TAP_TAPCELL_ROW_44_294
*1107 TAP_TAPCELL_ROW_44_295
*1108 TAP_TAPCELL_ROW_44_296
*1109 TAP_TAPCELL_ROW_44_297
*1110 TAP_TAPCELL_ROW_44_298
*1111 TAP_TAPCELL_ROW_44_299
*1112 TAP_TAPCELL_ROW_44_300
*1113 TAP_TAPCELL_ROW_44_301
*1114 TAP_TAPCELL_ROW_44_302
*1115 TAP_TAPCELL_ROW_4_113
*1116 TAP_TAPCELL_ROW_4_114
*1117 TAP_TAPCELL_ROW_4_115
*1118 TAP_TAPCELL_ROW_4_116
*1119 TAP_TAPCELL_ROW_4_117
*1120 TAP_TAPCELL_ROW_5_118
*1121 TAP_TAPCELL_ROW_5_119
*1122 TAP_TAPCELL_ROW_5_120
*1123 TAP_TAPCELL_ROW_5_121
*1124 TAP_TAPCELL_ROW_6_122
*1125 TAP_TAPCELL_ROW_6_123
*1126 TAP_TAPCELL_ROW_6_124
*1127 TAP_TAPCELL_ROW_6_125
*1128 TAP_TAPCELL_ROW_6_126
*1129 TAP_TAPCELL_ROW_7_127
*1130 TAP_TAPCELL_ROW_7_128
*1131 TAP_TAPCELL_ROW_7_129
*1132 TAP_TAPCELL_ROW_7_130
*1133 TAP_TAPCELL_ROW_8_131
*1134 TAP_TAPCELL_ROW_8_132
*1135 TAP_TAPCELL_ROW_8_133
*1136 TAP_TAPCELL_ROW_8_134
*1137 TAP_TAPCELL_ROW_8_135
*1138 TAP_TAPCELL_ROW_9_136
*1139 TAP_TAPCELL_ROW_9_137
*1140 TAP_TAPCELL_ROW_9_138
*1141 TAP_TAPCELL_ROW_9_139
*1142 _084_
*1143 _085_
*1144 _086_
*1145 _087_
*1146 _088_
*1147 _089_
*1148 _090_
*1149 _091_
*1150 _092_
*1151 _093_
*1152 _094_
*1153 _095_
*1154 _096_
*1155 _097_
*1156 _098_
*1157 _099_
*1158 _100_
*1159 _101_
*1160 _102_
*1161 _103_
*1162 _104_
*1163 _105_
*1164 _106_
*1165 _107_
*1166 _108_
*1167 _109_
*1168 _110_
*1169 _111_
*1170 _112_
*1171 _113_
*1172 _114_
*1173 _115_
*1174 _116_
*1175 _117_
*1176 _118_
*1177 _119_
*1178 _120_
*1179 _121_
*1180 _122_
*1181 _123_
*1182 _124_
*1183 _125_
*1184 _126_
*1185 _127_
*1186 _128_
*1187 _129_
*1188 _130_
*1189 _131_
*1190 _132_
*1191 _133_
*1192 _134_
*1193 _135_
*1194 _136_
*1195 _137_
*1196 _138_
*1197 _139_
*1198 _140_
*1199 _141_
*1200 _142_
*1201 _143_
*1202 _144_
*1203 _145_
*1204 _146_
*1205 _147_
*1206 _148_
*1207 _149_
*1208 _150_
*1209 _151_
*1210 _152_
*1211 _153_
*1212 _154_
*1213 _155_
*1214 _156_
*1215 _157_
*1216 _158_
*1217 _159_
*1218 _160_
*1219 _161_
*1220 _162_
*1221 _163_
*1222 _164_
*1223 _165_
*1224 _166_
*1225 _167_
*1226 _168_
*1227 _169_
*1228 _170_
*1229 _171_
*1230 _172_
*1231 _173_
*1232 _174_
*1233 _175_
*1234 _176_
*1235 _177_
*1236 _178_
*1237 _179_
*1238 _180_
*1239 _181_
*1240 _182_
*1241 _183_
*1242 _184_
*1243 _185_
*1244 _186_
*1245 _187_
*1246 _188_
*1247 _189_
*1248 _190_
*1249 _193_
*1250 _194_
*1251 _195_
*1252 _196_
*1253 _197_
*1254 clkbuf_0_clk
*1255 clkbuf_1_0__f_clk
*1256 clkbuf_1_1__f_clk
*1257 ita48_25
*1258 ita48_26
*1259 output1
*1260 output10
*1261 output11
*1262 output12
*1263 output13
*1264 output14
*1265 output15
*1266 output16
*1267 output17
*1268 output18
*1269 output19
*1270 output2
*1271 output20
*1272 output21
*1273 output22
*1274 output23
*1275 output24
*1276 output3
*1277 output4
*1278 output5
*1279 output6
*1280 output7
*1281 output8
*1282 output9

*PORTS
clk I
segm[0] O
segm[10] O
segm[11] O
segm[12] O
segm[13] O
segm[1] O
segm[2] O
segm[3] O
segm[4] O
segm[5] O
segm[6] O
segm[7] O
segm[8] O
segm[9] O
sel[0] O
sel[10] O
sel[11] O
sel[1] O
sel[2] O
sel[3] O
sel[4] O
sel[5] O
sel[6] O
sel[7] O
sel[8] O
sel[9] O

*D_NET *1 0.0131806
*CONN
*P clk I
*I *1254:I I *D gf180mcu_fd_sc_mcu7t5v0__clkbuf_16
*I *168:I I *D gf180mcu_fd_sc_mcu7t5v0__antenna
*CAP
1 clk 0.00422954
2 *1254:I 0.000201991
3 *168:I 8.66514e-05
4 *1:13 0.00451818
5 *168:I *1184:A1 2.36813e-05
6 *168:I *1184:A3 0.000403411
7 *168:I *108:12 0.000561041
8 *1254:I *1184:A1 0.000135676
9 *1254:I *1184:A2 0.000183662
10 *1254:I *73:37 0.000183662
11 *1254:I *77:12 1.42864e-05
12 *1:13 sel[4] 6.06423e-05
13 *1:13 sel[7] 6.94814e-05
14 *1:13 *1145:I 0.000809909
15 *1:13 *1151:A1 5.1774e-05
16 *1:13 *1166:A1 0.000300341
17 *1:13 *1186:A1 0
18 *1:13 *1191:I 2.94344e-05
19 *1:13 *77:12 9.07981e-05
20 *1:13 *79:19 4.55978e-05
21 *1:13 *86:10 0
22 *1:13 *104:18 9.22066e-05
23 *1:13 *115:106 0
24 *1:13 *119:10 0.000588683
25 *1:13 *119:23 0.000499907
*RES
1 clk *1:13 43.605 
2 *1:13 *168:I 10.8 
3 *1:13 *1254:I 11.34 
*END

*D_NET *2 0.000994699
*CONN
*P segm[0] O
*I *1259:Z O *D gf180mcu_fd_sc_mcu7t5v0__buf_8
*CAP
1 segm[0] 0.000464039
2 *1259:Z 0.000464039
3 segm[0] sel[3] 6.66205e-05
*RES
1 *1259:Z segm[0] 12.555 
*END

*D_NET *3 0.000655371
*CONN
*P segm[10] O
*I *1270:Z O *D gf180mcu_fd_sc_mcu7t5v0__buf_8
*CAP
1 segm[10] 0.000294374
2 *1270:Z 0.000294374
3 segm[10] segm[13] 6.66239e-05
*RES
1 *1270:Z segm[10] 11.475 
*END

*D_NET *4 0.00216517
*CONN
*P segm[11] O
*I *1276:Z O *D gf180mcu_fd_sc_mcu7t5v0__buf_8
*CAP
1 segm[11] 0.00102383
2 *1276:Z 0.00102383
3 segm[11] segm[1] 0.000117515
*RES
1 *1276:Z segm[11] 21.735 
*END

*D_NET *5 0.000989463
*CONN
*P segm[12] O
*I *1277:Z O *D gf180mcu_fd_sc_mcu7t5v0__buf_8
*CAP
1 segm[12] 0.000494732
2 *1277:Z 0.000494732
*RES
1 *1277:Z segm[12] 12.555 
*END

*D_NET *6 0.000609413
*CONN
*P segm[13] O
*I *1278:Z O *D gf180mcu_fd_sc_mcu7t5v0__buf_8
*CAP
1 segm[13] 0.000271395
2 *1278:Z 0.000271395
3 segm[10] segm[13] 6.66239e-05
*RES
1 *1278:Z segm[13] 11.295 
*END

*D_NET *7 0.00125657
*CONN
*P segm[1] O
*I *1257:ZN O *D gf180mcu_fd_sc_mcu7t5v0__tiel
*CAP
1 segm[1] 0.00056953
2 *1257:ZN 0.00056953
3 segm[11] segm[1] 0.000117515
*RES
1 *1257:ZN segm[1] 9.135 
*END

*D_NET *8 0.00226358
*CONN
*P segm[2] O
*I *1279:Z O *D gf180mcu_fd_sc_mcu7t5v0__buf_8
*CAP
1 segm[2] 0.000922945
2 *1279:Z 0.000922945
3 segm[2] segm[5] 0.00014876
4 segm[2] sel[2] 0.000117515
5 segm[2] *1267:I 0.000151417
*RES
1 *1279:Z segm[2] 21.015 
*END

*D_NET *9 0.00101212
*CONN
*P segm[3] O
*I *1280:Z O *D gf180mcu_fd_sc_mcu7t5v0__buf_8
*CAP
1 segm[3] 0.000425926
2 *1280:Z 0.000425926
3 segm[3] sel[3] 9.96302e-05
4 segm[3] sel[4] 6.06423e-05
*RES
1 *1280:Z segm[3] 12.375 
*END

*D_NET *10 0.000787604
*CONN
*P segm[4] O
*I *1258:ZN O *D gf180mcu_fd_sc_mcu7t5v0__tiel
*CAP
1 segm[4] 0.000393802
2 *1258:ZN 0.000393802
*RES
1 *1258:ZN segm[4] 11.655 
*END

*D_NET *11 0.00280203
*CONN
*P segm[5] O
*I *1281:Z O *D gf180mcu_fd_sc_mcu7t5v0__buf_8
*CAP
1 segm[5] 0.0013188
2 *1281:Z 0.0013188
3 segm[5] *1267:I 0
4 segm[5] *1279:I 0
5 segm[5] *1281:I 1.56779e-05
6 segm[2] segm[5] 0.00014876
*RES
1 *1281:Z segm[5] 23.175 
*END

*D_NET *12 0.000949337
*CONN
*P segm[6] O