*SPEF "ieee 1481-1999"
*DESIGN "ita45"
*DATE "11:11:11 Fri 11 11, 1111"
*VENDOR "OpenRCX"
*PROGRAM "Parallel Extraction"
*VERSION "1.0"
*DESIGN_FLOW "NAME_SCOPE LOCAL" "PIN_CAP NONE"
*DIVIDER /
*DELIMITER :
*BUS_DELIMITER []
*T_UNIT 1 NS
*C_UNIT 1 PF
*R_UNIT 1 OHM
*L_UNIT 1 HENRY

*NAME_MAP
*1 clk
*2 net23
*3 segm[10]
*4 segm[11]
*5 segm[12]
*6 segm[13]
*7 net24
*8 net25
*9 segm[3]
*10 net26
*11 segm[5]
*12 segm[6]
*13 segm[7]
*14 segm[8]
*15 segm[9]
*16 sel[0]
*17 sel[10]
*18 sel[11]
*19 sel[1]
*20 sel[2]
*21 sel[3]
*22 sel[4]
*23 sel[5]
*24 sel[6]
*25 sel[7]
*26 sel[8]
*27 sel[9]
*30 _000_
*31 _001_
*32 _002_
*33 _003_
*34 _004_
*35 _005_
*36 _006_
*37 _007_
*38 _008_
*39 _009_
*40 _010_
*41 _011_
*42 _012_
*43 _013_
*44 _014_
*45 _015_
*46 _016_
*47 _017_
*48 _018_
*49 _019_
*50 _020_
*51 _021_
*52 _022_
*53 _023_
*54 _024_
*55 _025_
*56 _026_
*57 _027_
*58 _028_
*59 _029_
*60 _030_
*61 _031_
*62 _032_
*63 _033_
*64 _034_
*65 _035_
*66 _036_
*67 _037_
*68 _038_
*69 _039_
*70 _040_
*71 _041_
*72 _042_
*73 _043_
*74 _044_
*75 _045_
*76 _046_
*77 _047_
*78 _048_
*79 _049_
*80 _050_
*81 _051_
*82 _052_
*83 _053_
*84 _054_
*85 _055_
*86 _056_
*87 _057_
*88 _058_
*89 _059_
*90 _060_
*91 _061_
*92 _062_
*93 _063_
*94 _064_
*95 _065_
*96 _066_
*97 _067_
*98 _068_
*99 _069_
*100 _070_
*101 _071_
*102 _072_
*103 _073_
*104 _074_
*105 _075_
*106 _076_
*107 _077_
*108 _078_
*109 _079_
*110 _080_
*111 _081_
*112 clknet_0_clk
*113 clknet_1_0__leaf_clk
*114 clknet_1_1__leaf_clk
*115 dut45\.count\[0\]
*116 dut45\.count\[1\]
*117 dut45\.count\[2\]
*118 dut45\.count\[3\]
*119 net1
*120 net10
*121 net11
*122 net12
*123 net13
*124 net14
*125 net15
*126 net16
*127 net17
*128 net18
*129 net19
*130 net2
*131 net20
*132 net21
*133 net22
*134 net3
*135 net4
*136 net5
*137 net6
*138 net7
*139 net8
*140 net9
*141 ANTENNA__164__CLK
*142 ANTENNA__165__CLK
*143 ANTENNA__166__CLK
*144 ANTENNA__167__CLK
*145 ANTENNA__168__CLK
*146 ANTENNA__169__CLK
*147 ANTENNA__170__CLK
*148 ANTENNA__171__CLK
*149 ANTENNA__172__CLK
*150 ANTENNA__173__CLK
*151 ANTENNA__174__CLK
*152 ANTENNA__175__CLK
*153 ANTENNA__176__CLK
*154 ANTENNA__177__CLK
*155 ANTENNA__178__CLK
*156 ANTENNA__179__CLK
*157 ANTENNA__180__CLK
*158 ANTENNA__181__CLK
*159 ANTENNA__182__CLK
*160 ANTENNA__183__CLK
*161 ANTENNA__184__CLK
*162 ANTENNA_clkbuf_0_clk_I
*163 FILLER_0_0_104
*164 FILLER_0_0_138
*165 FILLER_0_0_142
*166 FILLER_0_0_172
*167 FILLER_0_0_2
*168 FILLER_0_0_232
*169 FILLER_0_0_236
*170 FILLER_0_0_266
*171 FILLER_0_0_270
*172 FILLER_0_0_274
*173 FILLER_0_0_308
*174 FILLER_0_0_342
*175 FILLER_0_0_346
*176 FILLER_0_0_348
*177 FILLER_0_0_36
*178 FILLER_0_0_70
*179 FILLER_0_10_101
*180 FILLER_0_10_107
*181 FILLER_0_10_171
*182 FILLER_0_10_177
*183 FILLER_0_10_2
*184 FILLER_0_10_241
*185 FILLER_0_10_247
*186 FILLER_0_10_311
*187 FILLER_0_10_317
*188 FILLER_0_10_34
*189 FILLER_0_10_37
*190 FILLER_0_11_136
*191 FILLER_0_11_142
*192 FILLER_0_11_2
*193 FILLER_0_11_206
*194 FILLER_0_11_212
*195 FILLER_0_11_276
*196 FILLER_0_11_282
*197 FILLER_0_11_346
*198 FILLER_0_11_348
*199 FILLER_0_11_66
*200 FILLER_0_11_72
*201 FILLER_0_12_101
*202 FILLER_0_12_107
*203 FILLER_0_12_145
*204 FILLER_0_12_149
*205 FILLER_0_12_165
*206 FILLER_0_12_173
*207 FILLER_0_12_177
*208 FILLER_0_12_185
*209 FILLER_0_12_189
*210 FILLER_0_12_197
*211 FILLER_0_12_2
*212 FILLER_0_12_229
*213 FILLER_0_12_247
*214 FILLER_0_12_311
*215 FILLER_0_12_317
*216 FILLER_0_12_34
*217 FILLER_0_12_37
*218 FILLER_0_13_104
*219 FILLER_0_13_108
*220 FILLER_0_13_110
*221 FILLER_0_13_142
*222 FILLER_0_13_2
*223 FILLER_0_13_201
*224 FILLER_0_13_205
*225 FILLER_0_13_209
*226 FILLER_0_13_212
*227 FILLER_0_13_276
*228 FILLER_0_13_282
*229 FILLER_0_13_346
*230 FILLER_0_13_348
*231 FILLER_0_13_66
*232 FILLER_0_13_72
*233 FILLER_0_14_101
*234 FILLER_0_14_107
*235 FILLER_0_14_123
*236 FILLER_0_14_137
*237 FILLER_0_14_139
*238 FILLER_0_14_146
*239 FILLER_0_14_150
*240 FILLER_0_14_164
*241 FILLER_0_14_172
*242 FILLER_0_14_174
*243 FILLER_0_14_191
*244 FILLER_0_14_2
*245 FILLER_0_14_223
*246 FILLER_0_14_239
*247 FILLER_0_14_243
*248 FILLER_0_14_247
*249 FILLER_0_14_311
*250 FILLER_0_14_317
*251 FILLER_0_14_34
*252 FILLER_0_14_37
*253 FILLER_0_15_136
*254 FILLER_0_15_142
*255 FILLER_0_15_146
*256 FILLER_0_15_162
*257 FILLER_0_15_180
*258 FILLER_0_15_196
*259 FILLER_0_15_2
*260 FILLER_0_15_204
*261 FILLER_0_15_208
*262 FILLER_0_15_218
*263 FILLER_0_15_250
*264 FILLER_0_15_266
*265 FILLER_0_15_274
*266 FILLER_0_15_278
*267 FILLER_0_15_282
*268 FILLER_0_15_346
*269 FILLER_0_15_348
*270 FILLER_0_15_66
*271 FILLER_0_15_72
*272 FILLER_0_16_101
*273 FILLER_0_16_107
*274 FILLER_0_16_140
*275 FILLER_0_16_177
*276 FILLER_0_16_185
*277 FILLER_0_16_189
*278 FILLER_0_16_2
*279 FILLER_0_16_221
*280 FILLER_0_16_225
*281 FILLER_0_16_241
*282 FILLER_0_16_247
*283 FILLER_0_16_311
*284 FILLER_0_16_317
*285 FILLER_0_16_34
*286 FILLER_0_16_37
*287 FILLER_0_17_127
*288 FILLER_0_17_139
*289 FILLER_0_17_147
*290 FILLER_0_17_163
*291 FILLER_0_17_177
*292 FILLER_0_17_181
*293 FILLER_0_17_188
*294 FILLER_0_17_2
*295 FILLER_0_17_204
*296 FILLER_0_17_208
*297 FILLER_0_17_218
*298 FILLER_0_17_250
*299 FILLER_0_17_266
*300 FILLER_0_17_274
*301 FILLER_0_17_278
*302 FILLER_0_17_282
*303 FILLER_0_17_346
*304 FILLER_0_17_348
*305 FILLER_0_17_66
*306 FILLER_0_17_72
*307 FILLER_0_17_88
*308 FILLER_0_17_96
*309 FILLER_0_18_101
*310 FILLER_0_18_107
*311 FILLER_0_18_115
*312 FILLER_0_18_119
*313 FILLER_0_18_121
*314 FILLER_0_18_137
*315 FILLER_0_18_145
*316 FILLER_0_18_149
*317 FILLER_0_18_158
*318 FILLER_0_18_162
*319 FILLER_0_18_174
*320 FILLER_0_18_196
*321 FILLER_0_18_204
*322 FILLER_0_18_237
*323 FILLER_0_18_241
*324 FILLER_0_18_247
*325 FILLER_0_18_28
*326 FILLER_0_18_311
*327 FILLER_0_18_317
*328 FILLER_0_18_32
*329 FILLER_0_18_34
*330 FILLER_0_18_37
*331 FILLER_0_19_118
*332 FILLER_0_19_122
*333 FILLER_0_19_126
*334 FILLER_0_19_128
*335 FILLER_0_19_135
*336 FILLER_0_19_139
*337 FILLER_0_19_142
*338 FILLER_0_19_144
*339 FILLER_0_19_178
*340 FILLER_0_19_2
*341 FILLER_0_19_233
*342 FILLER_0_19_265
*343 FILLER_0_19_273
*344 FILLER_0_19_277
*345 FILLER_0_19_279
*346 FILLER_0_19_282
*347 FILLER_0_19_314
*348 FILLER_0_19_322
*349 FILLER_0_19_66
*350 FILLER_0_19_72
*351 FILLER_0_19_88
*352 FILLER_0_1_136
*353 FILLER_0_1_142
*354 FILLER_0_1_144
*355 FILLER_0_1_171
*356 FILLER_0_1_2
*357 FILLER_0_1_201
*358 FILLER_0_1_209
*359 FILLER_0_1_238
*360 FILLER_0_1_270
*361 FILLER_0_1_278
*362 FILLER_0_1_282
*363 FILLER_0_1_346
*364 FILLER_0_1_348
*365 FILLER_0_1_66
*366 FILLER_0_1_72
*367 FILLER_0_20_107
*368 FILLER_0_20_173
*369 FILLER_0_20_177
*370 FILLER_0_20_188
*371 FILLER_0_20_190
*372 FILLER_0_20_2
*373 FILLER_0_20_210
*374 FILLER_0_20_241
*375 FILLER_0_20_247
*376 FILLER_0_20_311
*377 FILLER_0_20_317
*378 FILLER_0_20_34
*379 FILLER_0_20_37
*380 FILLER_0_20_69
*381 FILLER_0_20_85
*382 FILLER_0_20_93
*383 FILLER_0_20_97
*384 FILLER_0_21_104
*385 FILLER_0_21_120
*386 FILLER_0_21_124
*387 FILLER_0_21_132
*388 FILLER_0_21_138
*389 FILLER_0_21_2
*390 FILLER_0_21_204
*391 FILLER_0_21_208
*392 FILLER_0_21_212
*393 FILLER_0_21_214
*394 FILLER_0_21_244
*395 FILLER_0_21_248
*396 FILLER_0_21_282
*397 FILLER_0_21_314
*398 FILLER_0_21_322
*399 FILLER_0_21_66
*400 FILLER_0_21_72
*401 FILLER_0_22_116
*402 FILLER_0_22_177
*403 FILLER_0_22_179
*404 FILLER_0_22_2
*405 FILLER_0_22_236
*406 FILLER_0_22_244
*407 FILLER_0_22_247
*408 FILLER_0_22_311
*409 FILLER_0_22_317
*410 FILLER_0_22_34
*411 FILLER_0_22_37
*412 FILLER_0_22_69
*413 FILLER_0_22_85
*414 FILLER_0_22_93
*415 FILLER_0_22_97
*416 FILLER_0_23_116
*417 FILLER_0_23_120
*418 FILLER_0_23_136
*419 FILLER_0_23_142
*420 FILLER_0_23_189
*421 FILLER_0_23_198
*422 FILLER_0_23_208
*423 FILLER_0_23_212
*424 FILLER_0_23_214
*425 FILLER_0_23_223
*426 FILLER_0_23_230
*427 FILLER_0_23_262
*428 FILLER_0_23_278
*429 FILLER_0_23_28
*430 FILLER_0_23_282
*431 FILLER_0_23_314
*432 FILLER_0_23_322
*433 FILLER_0_23_60
*434 FILLER_0_23_68
*435 FILLER_0_23_72
*436 FILLER_0_23_76
*437 FILLER_0_24_104
*438 FILLER_0_24_107
*439 FILLER_0_24_141
*440 FILLER_0_24_145
*441 FILLER_0_24_155
*442 FILLER_0_24_159
*443 FILLER_0_24_173
*444 FILLER_0_24_188
*445 FILLER_0_24_2
*446 FILLER_0_24_225
*447 FILLER_0_24_229
*448 FILLER_0_24_247
*449 FILLER_0_24_311
*450 FILLER_0_24_317
*451 FILLER_0_24_34
*452 FILLER_0_24_37
*453 FILLER_0_24_69
*454 FILLER_0_24_85
*455 FILLER_0_24_93
*456 FILLER_0_24_97
*457 FILLER_0_25_108
*458 FILLER_0_25_110
*459 FILLER_0_25_121
*460 FILLER_0_25_137
*461 FILLER_0_25_139
*462 FILLER_0_25_142
*463 FILLER_0_25_150
*464 FILLER_0_25_161
*465 FILLER_0_25_178
*466 FILLER_0_25_186
*467 FILLER_0_25_190
*468 FILLER_0_25_198
*469 FILLER_0_25_206
*470 FILLER_0_25_217
*471 FILLER_0_25_249
*472 FILLER_0_25_265
*473 FILLER_0_25_273
*474 FILLER_0_25_277
*475 FILLER_0_25_279
*476 FILLER_0_25_28
*477 FILLER_0_25_282
*478 FILLER_0_25_314
*479 FILLER_0_25_322
*480 FILLER_0_25_60
*481 FILLER_0_25_68
*482 FILLER_0_25_72
*483 FILLER_0_25_76
*484 FILLER_0_25_78
*485 FILLER_0_26_101
*486 FILLER_0_26_107
*487 FILLER_0_26_111
*488 FILLER_0_26_115
*489 FILLER_0_26_122
*490 FILLER_0_26_154
*491 FILLER_0_26_164
*492 FILLER_0_26_177
*493 FILLER_0_26_193
*494 FILLER_0_26_197
*495 FILLER_0_26_199
*496 FILLER_0_26_2
*497 FILLER_0_26_229
*498 FILLER_0_26_233
*499 FILLER_0_26_241
*500 FILLER_0_26_247
*501 FILLER_0_26_311
*502 FILLER_0_26_317
*503 FILLER_0_26_34
*504 FILLER_0_26_37
*505 FILLER_0_27_130
*506 FILLER_0_27_134
*507 FILLER_0_27_138
*508 FILLER_0_27_142
*509 FILLER_0_27_146
*510 FILLER_0_27_148
*511 FILLER_0_27_157
*512 FILLER_0_27_172
*513 FILLER_0_27_209
*514 FILLER_0_27_217
*515 FILLER_0_27_249
*516 FILLER_0_27_265
*517 FILLER_0_27_273
*518 FILLER_0_27_277
*519 FILLER_0_27_279
*520 FILLER_0_27_28
*521 FILLER_0_27_282
*522 FILLER_0_27_346
*523 FILLER_0_27_348
*524 FILLER_0_27_60
*525 FILLER_0_27_68
*526 FILLER_0_27_72
*527 FILLER_0_27_88
*528 FILLER_0_27_92
*529 FILLER_0_27_94
*530 FILLER_0_28_101
*531 FILLER_0_28_107
*532 FILLER_0_28_123
*533 FILLER_0_28_168
*534 FILLER_0_28_172
*535 FILLER_0_28_174
*536 FILLER_0_28_177
*537 FILLER_0_28_185
*538 FILLER_0_28_199
*539 FILLER_0_28_205
*540 FILLER_0_28_237
*541 FILLER_0_28_247
*542 FILLER_0_28_28
*543 FILLER_0_28_311
*544 FILLER_0_28_317
*545 FILLER_0_28_32
*546 FILLER_0_28_321
*547 FILLER_0_28_34
*548 FILLER_0_28_37
*549 FILLER_0_29_136
*550 FILLER_0_29_171
*551 FILLER_0_29_179
*552 FILLER_0_29_2
*553 FILLER_0_29_212
*554 FILLER_0_29_216
*555 FILLER_0_29_282
*556 FILLER_0_29_346
*557 FILLER_0_29_348
*558 FILLER_0_29_66
*559 FILLER_0_29_72
*560 FILLER_0_2_101
*561 FILLER_0_2_107
*562 FILLER_0_2_165
*563 FILLER_0_2_173
*564 FILLER_0_2_177
*565 FILLER_0_2_193
*566 FILLER_0_2_197
*567 FILLER_0_2_2
*568 FILLER_0_2_225
*569 FILLER_0_2_241
*570 FILLER_0_2_247
*571 FILLER_0_2_311
*572 FILLER_0_2_317
*573 FILLER_0_2_34
*574 FILLER_0_2_37
*575 FILLER_0_30_101
*576 FILLER_0_30_107
*577 FILLER_0_30_139
*578 FILLER_0_30_155
*579 FILLER_0_30_163
*580 FILLER_0_30_167
*581 FILLER_0_30_169
*582 FILLER_0_30_2
*583 FILLER_0_30_206
*584 FILLER_0_30_210
*585 FILLER_0_30_242
*586 FILLER_0_30_244
*587 FILLER_0_30_247
*588 FILLER_0_30_311
*589 FILLER_0_30_317
*590 FILLER_0_30_34
*591 FILLER_0_30_37
*592 FILLER_0_31_136
*593 FILLER_0_31_142
*594 FILLER_0_31_2
*595 FILLER_0_31_206
*596 FILLER_0_31_212
*597 FILLER_0_31_276
*598 FILLER_0_31_282
*599 FILLER_0_31_346
*600 FILLER_0_31_348
*601 FILLER_0_31_66
*602 FILLER_0_31_72
*603 FILLER_0_32_101
*604 FILLER_0_32_107
*605 FILLER_0_32_171
*606 FILLER_0_32_177
*607 FILLER_0_32_2
*608 FILLER_0_32_241
*609 FILLER_0_32_247
*610 FILLER_0_32_311
*611 FILLER_0_32_317
*612 FILLER_0_32_34
*613 FILLER_0_32_37
*614 FILLER_0_33_136
*615 FILLER_0_33_142
*616 FILLER_0_33_2
*617 FILLER_0_33_206
*618 FILLER_0_33_212
*619 FILLER_0_33_276
*620 FILLER_0_33_282
*621 FILLER_0_33_346
*622 FILLER_0_33_348
*623 FILLER_0_33_66
*624 FILLER_0_33_72
*625 FILLER_0_34_101
*626 FILLER_0_34_107
*627 FILLER_0_34_171
*628 FILLER_0_34_177
*629 FILLER_0_34_2
*630 FILLER_0_34_241
*631 FILLER_0_34_247
*632 FILLER_0_34_311
*633 FILLER_0_34_317
*634 FILLER_0_34_34
*635 FILLER_0_34_37
*636 FILLER_0_35_136
*637 FILLER_0_35_142
*638 FILLER_0_35_2
*639 FILLER_0_35_206
*640 FILLER_0_35_212
*641 FILLER_0_35_276
*642 FILLER_0_35_282
*643 FILLER_0_35_346
*644 FILLER_0_35_348
*645 FILLER_0_35_66
*646 FILLER_0_35_72
*647 FILLER_0_36_101
*648 FILLER_0_36_107
*649 FILLER_0_36_171
*650 FILLER_0_36_177
*651 FILLER_0_36_2
*652 FILLER_0_36_241
*653 FILLER_0_36_247
*654 FILLER_0_36_311
*655 FILLER_0_36_317
*656 FILLER_0_36_34
*657 FILLER_0_36_37
*658 FILLER_0_37_136
*659 FILLER_0_37_142
*660 FILLER_0_37_2
*661 FILLER_0_37_206
*662 FILLER_0_37_212
*663 FILLER_0_37_276
*664 FILLER_0_37_282
*665 FILLER_0_37_346
*666 FILLER_0_37_348
*667 FILLER_0_37_66
*668 FILLER_0_37_72
*669 FILLER_0_38_101
*670 FILLER_0_38_107
*671 FILLER_0_38_171
*672 FILLER_0_38_177
*673 FILLER_0_38_2
*674 FILLER_0_38_241
*675 FILLER_0_38_247
*676 FILLER_0_38_311
*677 FILLER_0_38_317
*678 FILLER_0_38_34
*679 FILLER_0_38_37
*680 FILLER_0_39_136
*681 FILLER_0_39_142
*682 FILLER_0_39_2
*683 FILLER_0_39_206
*684 FILLER_0_39_212
*685 FILLER_0_39_276
*686 FILLER_0_39_282
*687 FILLER_0_39_346
*688 FILLER_0_39_348
*689 FILLER_0_39_66
*690 FILLER_0_39_72
*691 FILLER_0_3_136
*692 FILLER_0_3_142
*693 FILLER_0_3_158
*694 FILLER_0_3_166
*695 FILLER_0_3_168
*696 FILLER_0_3_195
*697 FILLER_0_3_2
*698 FILLER_0_3_203
*699 FILLER_0_3_207
*700 FILLER_0_3_209
*701 FILLER_0_3_212
*702 FILLER_0_3_276
*703 FILLER_0_3_282
*704 FILLER_0_3_346
*705 FILLER_0_3_348
*706 FILLER_0_3_66
*707 FILLER_0_3_72
*708 FILLER_0_40_101
*709 FILLER_0_40_107
*710 FILLER_0_40_171
*711 FILLER_0_40_177
*712 FILLER_0_40_2
*713 FILLER_0_40_241
*714 FILLER_0_40_247
*715 FILLER_0_40_311
*716 FILLER_0_40_317
*717 FILLER_0_40_34
*718 FILLER_0_40_37
*719 FILLER_0_41_136
*720 FILLER_0_41_142
*721 FILLER_0_41_2
*722 FILLER_0_41_206
*723 FILLER_0_41_212
*724 FILLER_0_41_276
*725 FILLER_0_41_282
*726 FILLER_0_41_346
*727 FILLER_0_41_348
*728 FILLER_0_41_66
*729 FILLER_0_41_72
*730 FILLER_0_42_101
*731 FILLER_0_42_107
*732 FILLER_0_42_171
*733 FILLER_0_42_177
*734 FILLER_0_42_22
*735 FILLER_0_42_241
*736 FILLER_0_42_247
*737 FILLER_0_42_30
*738 FILLER_0_42_311
*739 FILLER_0_42_317
*740 FILLER_0_42_333
*741 FILLER_0_42_34
*742 FILLER_0_42_37
*743 FILLER_0_42_6
*744 FILLER_0_43_136
*745 FILLER_0_43_142
*746 FILLER_0_43_2
*747 FILLER_0_43_206
*748 FILLER_0_43_238
*749 FILLER_0_43_270
*750 FILLER_0_43_278
*751 FILLER_0_43_282
*752 FILLER_0_43_346
*753 FILLER_0_43_348
*754 FILLER_0_43_66
*755 FILLER_0_43_72
*756 FILLER_0_44_104
*757 FILLER_0_44_138
*758 FILLER_0_44_172
*759 FILLER_0_44_2
*760 FILLER_0_44_232
*761 FILLER_0_44_236
*762 FILLER_0_44_240
*763 FILLER_0_44_274
*764 FILLER_0_44_308
*765 FILLER_0_44_342
*766 FILLER_0_44_346
*767 FILLER_0_44_348
*768 FILLER_0_44_36
*769 FILLER_0_44_70
*770 FILLER_0_4_101
*771 FILLER_0_4_107
*772 FILLER_0_4_171
*773 FILLER_0_4_177
*774 FILLER_0_4_2
*775 FILLER_0_4_241
*776 FILLER_0_4_247
*777 FILLER_0_4_311
*778 FILLER_0_4_317
*779 FILLER_0_4_34
*780 FILLER_0_4_37
*781 FILLER_0_5_136
*782 FILLER_0_5_142
*783 FILLER_0_5_2
*784 FILLER_0_5_206
*785 FILLER_0_5_212
*786 FILLER_0_5_276
*787 FILLER_0_5_282
*788 FILLER_0_5_346
*789 FILLER_0_5_348
*790 FILLER_0_5_66
*791 FILLER_0_5_72
*792 FILLER_0_6_101
*793 FILLER_0_6_107
*794 FILLER_0_6_171
*795 FILLER_0_6_177
*796 FILLER_0_6_2
*797 FILLER_0_6_241
*798 FILLER_0_6_247
*799 FILLER_0_6_311
*800 FILLER_0_6_317
*801 FILLER_0_6_34
*802 FILLER_0_6_37
*803 FILLER_0_7_136
*804 FILLER_0_7_142
*805 FILLER_0_7_2
*806 FILLER_0_7_206
*807 FILLER_0_7_212
*808 FILLER_0_7_276
*809 FILLER_0_7_282
*810 FILLER_0_7_346
*811 FILLER_0_7_348
*812 FILLER_0_7_66
*813 FILLER_0_7_72
*814 FILLER_0_8_101
*815 FILLER_0_8_107
*816 FILLER_0_8_171
*817 FILLER_0_8_177
*818 FILLER_0_8_2
*819 FILLER_0_8_241
*820 FILLER_0_8_247
*821 FILLER_0_8_311
*822 FILLER_0_8_317
*823 FILLER_0_8_34
*824 FILLER_0_8_37
*825 FILLER_0_9_136
*826 FILLER_0_9_142
*827 FILLER_0_9_2
*828 FILLER_0_9_206
*829 FILLER_0_9_212
*830 FILLER_0_9_276
*831 FILLER_0_9_282
*832 FILLER_0_9_346
*833 FILLER_0_9_348
*834 FILLER_0_9_66
*835 FILLER_0_9_72
*836 PHY_EDGE_ROW_0_Left_45
*837 PHY_EDGE_ROW_0_Right_0
*838 PHY_EDGE_ROW_10_Left_55
*839 PHY_EDGE_ROW_10_Right_10
*840 PHY_EDGE_ROW_11_Left_56
*841 PHY_EDGE_ROW_11_Right_11
*842 PHY_EDGE_ROW_12_Left_57
*843 PHY_EDGE_ROW_12_Right_12
*844 PHY_EDGE_ROW_13_Left_58
*845 PHY_EDGE_ROW_13_Right_13
*846 PHY_EDGE_ROW_14_Left_59
*847 PHY_EDGE_ROW_14_Right_14
*848 PHY_EDGE_ROW_15_Left_60
*849 PHY_EDGE_ROW_15_Right_15
*850 PHY_EDGE_ROW_16_Left_61
*851 PHY_EDGE_ROW_16_Right_16
*852 PHY_EDGE_ROW_17_Left_62
*853 PHY_EDGE_ROW_17_Right_17
*854 PHY_EDGE_ROW_18_Left_63
*855 PHY_EDGE_ROW_18_Right_18
*856 PHY_EDGE_ROW_19_Left_64
*857 PHY_EDGE_ROW_19_Right_19
*858 PHY_EDGE_ROW_1_Left_46
*859 PHY_EDGE_ROW_1_Right_1
*860 PHY_EDGE_ROW_20_Left_65
*861 PHY_EDGE_ROW_20_Right_20
*862 PHY_EDGE_ROW_21_Left_66
*863 PHY_EDGE_ROW_21_Right_21
*864 PHY_EDGE_ROW_22_Left_67
*865 PHY_EDGE_ROW_22_Right_22
*866 PHY_EDGE_ROW_23_Left_68
*867 PHY_EDGE_ROW_23_Right_23
*868 PHY_EDGE_ROW_24_Left_69
*869 PHY_EDGE_ROW_24_Right_24
*870 PHY_EDGE_ROW_25_Left_70
*871 PHY_EDGE_ROW_25_Right_25
*872 PHY_EDGE_ROW_26_Left_71
*873 PHY_EDGE_ROW_26_Right_26
*874 PHY_EDGE_ROW_27_Left_72
*875 PHY_EDGE_ROW_27_Right_27
*876 PHY_EDGE_ROW_28_Left_73
*877 PHY_EDGE_ROW_28_Right_28
*878 PHY_EDGE_ROW_29_Left_74
*879 PHY_EDGE_ROW_29_Right_29
*880 PHY_EDGE_ROW_2_Left_47
*881 PHY_EDGE_ROW_2_Right_2
*882 PHY_EDGE_ROW_30_Left_75
*883 PHY_EDGE_ROW_30_Right_30
*884 PHY_EDGE_ROW_31_Left_76
*885 PHY_EDGE_ROW_31_Right_31
*886 PHY_EDGE_ROW_32_Left_77
*887 PHY_EDGE_ROW_32_Right_32
*888 PHY_EDGE_ROW_33_Left_78
*889 PHY_EDGE_ROW_33_Right_33
*890 PHY_EDGE_ROW_34_Left_79
*891 PHY_EDGE_ROW_34_Right_34
*892 PHY_EDGE_ROW_35_Left_80
*893 PHY_EDGE_ROW_35_Right_35
*894 PHY_EDGE_ROW_36_Left_81
*895 PHY_EDGE_ROW_36_Right_36
*896 PHY_EDGE_ROW_37_Left_82
*897 PHY_EDGE_ROW_37_Right_37
*898 PHY_EDGE_ROW_38_Left_83
*899 PHY_EDGE_ROW_38_Right_38
*900 PHY_EDGE_ROW_39_Left_84
*901 PHY_EDGE_ROW_39_Right_39
*902 PHY_EDGE_ROW_3_Left_48
*903 PHY_EDGE_ROW_3_Right_3
*904 PHY_EDGE_ROW_40_Left_85
*905 PHY_EDGE_ROW_40_Right_40
*906 PHY_EDGE_ROW_41_Left_86
*907 PHY_EDGE_ROW_41_Right_41
*908 PHY_EDGE_ROW_42_Left_87
*909 PHY_EDGE_ROW_42_Right_42
*910 PHY_EDGE_ROW_43_Left_88
*911 PHY_EDGE_ROW_43_Right_43
*912 PHY_EDGE_ROW_44_Left_89
*913 PHY_EDGE_ROW_44_Right_44
*914 PHY_EDGE_ROW_4_Left_49
*915 PHY_EDGE_ROW_4_Right_4
*916 PHY_EDGE_ROW_5_Left_50
*917 PHY_EDGE_ROW_5_Right_5
*918 PHY_EDGE_ROW_6_Left_51
*919 PHY_EDGE_ROW_6_Right_6
*920 PHY_EDGE_ROW_7_Left_52
*921 PHY_EDGE_ROW_7_Right_7
*922 PHY_EDGE_ROW_8_Left_53
*923 PHY_EDGE_ROW_8_Right_8
*924 PHY_EDGE_ROW_9_Left_54
*925 PHY_EDGE_ROW_9_Right_9
*926 TAP_TAPCELL_ROW_0_90
*927 TAP_TAPCELL_ROW_0_91
*928 TAP_TAPCELL_ROW_0_92
*929 TAP_TAPCELL_ROW_0_93
*930 TAP_TAPCELL_ROW_0_94
*931 TAP_TAPCELL_ROW_0_95
*932 TAP_TAPCELL_ROW_0_96
*933 TAP_TAPCELL_ROW_0_97
*934 TAP_TAPCELL_ROW_0_98
*935 TAP_TAPCELL_ROW_0_99
*936 TAP_TAPCELL_ROW_10_140
*937 TAP_TAPCELL_ROW_10_141
*938 TAP_TAPCELL_ROW_10_142
*939 TAP_TAPCELL_ROW_10_143
*940 TAP_TAPCELL_ROW_10_144
*941 TAP_TAPCELL_ROW_11_145
*942 TAP_TAPCELL_ROW_11_146
*943 TAP_TAPCELL_ROW_11_147
*944 TAP_TAPCELL_ROW_11_148
*945 TAP_TAPCELL_ROW_12_149
*946 TAP_TAPCELL_ROW_12_150
*947 TAP_TAPCELL_ROW_12_151
*948 TAP_TAPCELL_ROW_12_152
*949 TAP_TAPCELL_ROW_12_153
*950 TAP_TAPCELL_ROW_13_154
*951 TAP_TAPCELL_ROW_13_155
*952 TAP_TAPCELL_ROW_13_156
*953 TAP_TAPCELL_ROW_13_157
*954 TAP_TAPCELL_ROW_14_158
*955 TAP_TAPCELL_ROW_14_159
*956 TAP_TAPCELL_ROW_14_160
*957 TAP_TAPCELL_ROW_14_161
*958 TAP_TAPCELL_ROW_14_162
*959 TAP_TAPCELL_ROW_15_163
*960 TAP_TAPCELL_ROW_15_164
*961 TAP_TAPCELL_ROW_15_165
*962 TAP_TAPCELL_ROW_15_166
*963 TAP_TAPCELL_ROW_16_167
*964 TAP_TAPCELL_ROW_16_168
*965 TAP_TAPCELL_ROW_16_169
*966 TAP_TAPCELL_ROW_16_170
*967 TAP_TAPCELL_ROW_16_171
*968 TAP_TAPCELL_ROW_17_172
*969 TAP_TAPCELL_ROW_17_173
*970 TAP_TAPCELL_ROW_17_174
*971 TAP_TAPCELL_ROW_17_175
*972 TAP_TAPCELL_ROW_18_176
*973 TAP_TAPCELL_ROW_18_177
*974 TAP_TAPCELL_ROW_18_178
*975 TAP_TAPCELL_ROW_18_179
*976 TAP_TAPCELL_ROW_18_180
*977 TAP_TAPCELL_ROW_19_181
*978 TAP_TAPCELL_ROW_19_182
*979 TAP_TAPCELL_ROW_19_183
*980 TAP_TAPCELL_ROW_19_184
*981 TAP_TAPCELL_ROW_1_100
*982 TAP_TAPCELL_ROW_1_101
*983 TAP_TAPCELL_ROW_1_102
*984 TAP_TAPCELL_ROW_1_103
*985 TAP_TAPCELL_ROW_20_185
*986 TAP_TAPCELL_ROW_20_186
*987 TAP_TAPCELL_ROW_20_187
*988 TAP_TAPCELL_ROW_20_188
*989 TAP_TAPCELL_ROW_20_189
*990 TAP_TAPCELL_ROW_21_190
*991 TAP_TAPCELL_ROW_21_191
*992 TAP_TAPCELL_ROW_21_192
*993 TAP_TAPCELL_ROW_21_193
*994 TAP_TAPCELL_ROW_22_194
*995 TAP_TAPCELL_ROW_22_195
*996 TAP_TAPCELL_ROW_22_196
*997 TAP_TAPCELL_ROW_22_197
*998 TAP_TAPCELL_ROW_22_198
*999 TAP_TAPCELL_ROW_23_199
*1000 TAP_TAPCELL_ROW_23_200
*1001 TAP_TAPCELL_ROW_23_201
*1002 TAP_TAPCELL_ROW_23_202
*1003 TAP_TAPCELL_ROW_24_203
*1004 TAP_TAPCELL_ROW_24_204
*1005 TAP_TAPCELL_ROW_24_205
*1006 TAP_TAPCELL_ROW_24_206
*1007 TAP_TAPCELL_ROW_24_207
*1008 TAP_TAPCELL_ROW_25_208
*1009 TAP_TAPCELL_ROW_25_209
*1010 TAP_TAPCELL_ROW_25_210
*1011 TAP_TAPCELL_ROW_25_211
*1012 TAP_TAPCELL_ROW_26_212
*1013 TAP_TAPCELL_ROW_26_213
*1014 TAP_TAPCELL_ROW_26_214
*1015 TAP_TAPCELL_ROW_26_215
*1016 TAP_TAPCELL_ROW_26_216
*1017 TAP_TAPCELL_ROW_27_217
*1018 TAP_TAPCELL_ROW_27_218
*1019 TAP_TAPCELL_ROW_27_219
*1020 TAP_TAPCELL_ROW_27_220
*1021 TAP_TAPCELL_ROW_28_221
*1022 TAP_TAPCELL_ROW_28_222
*1023 TAP_TAPCELL_ROW_28_223
*1024 TAP_TAPCELL_ROW_28_224
*1025 TAP_TAPCELL_ROW_28_225
*1026 TAP_TAPCELL_ROW_29_226
*1027 TAP_TAPCELL_ROW_29_227
*1028 TAP_TAPCELL_ROW_29_228
*1029 TAP_TAPCELL_ROW_29_229
*1030 TAP_TAPCELL_ROW_2_104
*1031 TAP_TAPCELL_ROW_2_105
*1032 TAP_TAPCELL_ROW_2_106
*1033 TAP_TAPCELL_ROW_2_107
*1034 TAP_TAPCELL_ROW_2_108
*1035 TAP_TAPCELL_ROW_30_230
*1036 TAP_TAPCELL_ROW_30_231
*1037 TAP_TAPCELL_ROW_30_232
*1038 TAP_TAPCELL_ROW_30_233
*1039 TAP_TAPCELL_ROW_30_234
*1040 TAP_TAPCELL_ROW_31_235
*1041 TAP_TAPCELL_ROW_31_236
*1042 TAP_TAPCELL_ROW_31_237
*1043 TAP_TAPCELL_ROW_31_238
*1044 TAP_TAPCELL_ROW_32_239
*1045 TAP_TAPCELL_ROW_32_240
*1046 TAP_TAPCELL_ROW_32_241
*1047 TAP_TAPCELL_ROW_32_242
*1048 TAP_TAPCELL_ROW_32_243
*1049 TAP_TAPCELL_ROW_33_244
*1050 TAP_TAPCELL_ROW_33_245
*1051 TAP_TAPCELL_ROW_33_246
*1052 TAP_TAPCELL_ROW_33_247
*1053 TAP_TAPCELL_ROW_34_248
*1054 TAP_TAPCELL_ROW_34_249
*1055 TAP_TAPCELL_ROW_34_250
*1056 TAP_TAPCELL_ROW_34_251
*1057 TAP_TAPCELL_ROW_34_252
*1058 TAP_TAPCELL_ROW_35_253
*1059 TAP_TAPCELL_ROW_35_254
*1060 TAP_TAPCELL_ROW_35_255
*1061 TAP_TAPCELL_ROW_35_256
*1062 TAP_TAPCELL_ROW_36_257
*1063 TAP_TAPCELL_ROW_36_258
*1064 TAP_TAPCELL_ROW_36_259
*1065 TAP_TAPCELL_ROW_36_260
*1066 TAP_TAPCELL_ROW_36_261
*1067 TAP_TAPCELL_ROW_37_262
*1068 TAP_TAPCELL_ROW_37_263
*1069 TAP_TAPCELL_ROW_37_264
*1070 TAP_TAPCELL_ROW_37_265
*1071 TAP_TAPCELL_ROW_38_266
*1072 TAP_TAPCELL_ROW_38_267
*1073 TAP_TAPCELL_ROW_38_268
*1074 TAP_TAPCELL_ROW_38_269
*1075 TAP_TAPCELL_ROW_38_270
*1076 TAP_TAPCELL_ROW_39_271
*1077 TAP_TAPCELL_ROW_39_272
*1078 TAP_TAPCELL_ROW_39_273
*1079 TAP_TAPCELL_ROW_39_274
*1080 TAP_TAPCELL_ROW_3_109
*1081 TAP_TAPCELL_ROW_3_110
*1082 TAP_TAPCELL_ROW_3_111
*1083 TAP_TAPCELL_ROW_3_112
*1084 TAP_TAPCELL_ROW_40_275
*1085 TAP_TAPCELL_ROW_40_276
*1086 TAP_TAPCELL_ROW_40_277
*1087 TAP_TAPCELL_ROW_40_278
*1088 TAP_TAPCELL_ROW_40_279
*1089 TAP_TAPCELL_ROW_41_280
*1090 TAP_TAPCELL_ROW_41_281
*1091 TAP_TAPCELL_ROW_41_282
*1092 TAP_TAPCELL_ROW_41_283
*1093 TAP_TAPCELL_ROW_42_284
*1094 TAP_TAPCELL_ROW_42_285
*1095 TAP_TAPCELL_ROW_42_286
*1096 TAP_TAPCELL_ROW_42_287
*1097 TAP_TAPCELL_ROW_42_288
*1098 TAP_TAPCELL_ROW_43_289
*1099 TAP_TAPCELL_ROW_43_290
*1100 TAP_TAPCELL_ROW_43_291
*1101 TAP_TAPCELL_ROW_43_292
*1102 TAP_TAPCELL_ROW_44_293
*1103 TAP_TAPCELL_ROW_44_294
*1104 TAP_TAPCELL_ROW_44_295
*1105 TAP_TAPCELL_ROW_44_296
*1106 TAP_TAPCELL_ROW_44_297
*1107 TAP_TAPCELL_ROW_44_298
*1108 TAP_TAPCELL_ROW_44_299
*1109 TAP_TAPCELL_ROW_44_300
*1110 TAP_TAPCELL_ROW_44_301
*1111 TAP_TAPCELL_ROW_44_302
*1112 TAP_TAPCELL_ROW_4_113
*1113 TAP_TAPCELL_ROW_4_114
*1114 TAP_TAPCELL_ROW_4_115
*1115 TAP_TAPCELL_ROW_4_116
*1116 TAP_TAPCELL_ROW_4_117
*1117 TAP_TAPCELL_ROW_5_118
*1118 TAP_TAPCELL_ROW_5_119
*1119 TAP_TAPCELL_ROW_5_120
*1120 TAP_TAPCELL_ROW_5_121
*1121 TAP_TAPCELL_ROW_6_122
*1122 TAP_TAPCELL_ROW_6_123
*1123 TAP_TAPCELL_ROW_6_124
*1124 TAP_TAPCELL_ROW_6_125
*1125 TAP_TAPCELL_ROW_6_126
*1126 TAP_TAPCELL_ROW_7_127
*1127 TAP_TAPCELL_ROW_7_128
*1128 TAP_TAPCELL_ROW_7_129
*1129 TAP_TAPCELL_ROW_7_130
*1130 TAP_TAPCELL_ROW_8_131
*1131 TAP_TAPCELL_ROW_8_132
*1132 TAP_TAPCELL_ROW_8_133
*1133 TAP_TAPCELL_ROW_8_134
*1134 TAP_TAPCELL_ROW_8_135
*1135 TAP_TAPCELL_ROW_9_136
*1136 TAP_TAPCELL_ROW_9_137
*1137 TAP_TAPCELL_ROW_9_138
*1138 TAP_TAPCELL_ROW_9_139
*1139 _082_
*1140 _083_
*1141 _084_
*1142 _085_
*1143 _086_
*1144 _087_
*1145 _088_
*1146 _089_
*1147 _090_
*1148 _091_
*1149 _092_
*1150 _093_
*1151 _094_
*1152 _095_
*1153 _096_
*1154 _097_
*1155 _098_
*1156 _099_
*1157 _100_
*1158 _101_
*1159 _102_
*1160 _103_
*1161 _104_
*1162 _105_
*1163 _106_
*1164 _107_
*1165 _108_
*1166 _109_
*1167 _110_
*1168 _111_
*1169 _112_
*1170 _113_
*1171 _114_
*1172 _115_
*1173 _116_
*1174 _117_
*1175 _118_
*1176 _119_
*1177 _120_
*1178 _121_
*1179 _122_
*1180 _123_
*1181 _124_
*1182 _125_
*1183 _126_
*1184 _127_
*1185 _128_
*1186 _129_
*1187 _130_
*1188 _131_
*1189 _132_
*1190 _133_
*1191 _134_
*1192 _135_
*1193 _136_
*1194 _137_
*1195 _138_
*1196 _139_
*1197 _140_
*1198 _141_
*1199 _142_
*1200 _143_
*1201 _144_
*1202 _145_
*1203 _146_
*1204 _147_
*1205 _148_
*1206 _149_
*1207 _150_
*1208 _151_
*1209 _152_
*1210 _153_
*1211 _154_
*1212 _155_
*1213 _156_
*1214 _157_
*1215 _158_
*1216 _159_
*1217 _160_
*1218 _161_
*1219 _162_
*1220 _163_
*1221 _164_
*1222 _165_
*1223 _166_
*1224 _167_
*1225 _168_
*1226 _169_
*1227 _170_
*1228 _171_
*1229 _172_
*1230 _173_
*1231 _174_
*1232 _175_
*1233 _176_
*1234 _177_
*1235 _178_
*1236 _179_
*1237 _180_
*1238 _181_
*1239 _182_
*1240 _183_
*1241 _184_
*1242 _189_
*1243 _190_
*1244 _191_
*1245 _192_
*1246 _193_
*1247 clkbuf_0_clk
*1248 clkbuf_1_0__f_clk
*1249 clkbuf_1_1__f_clk
*1250 ita45_23
*1251 ita45_24
*1252 ita45_25
*1253 ita45_26
*1254 output1
*1255 output10
*1256 output11
*1257 output12
*1258 output13
*1259 output14
*1260 output15
*1261 output16
*1262 output17
*1263 output18
*1264 output19
*1265 output2
*1266 output20
*1267 output21
*1268 output22
*1269 output3
*1270 output4
*1271 output5
*1272 output6
*1273 output7
*1274 output8
*1275 output9

*PORTS
clk I
segm[0] O
segm[10] O
segm[11] O
segm[12] O
segm[13] O
segm[1] O
segm[2] O
segm[3] O
segm[4] O
segm[5] O
segm[6] O
segm[7] O
segm[8] O
segm[9] O
sel[0] O
sel[10] O
sel[11] O
sel[1] O
sel[2] O
sel[3] O
sel[4] O
sel[5] O
sel[6] O
sel[7] O
sel[8] O
sel[9] O

*D_NET *1 0.0124735
*CONN
*P clk I
*I *1247:I I *D gf180mcu_fd_sc_mcu7t5v0__clkbuf_16
*I *162:I I *D gf180mcu_fd_sc_mcu7t5v0__antenna
*CAP
1 clk 0.00468569
2 *1247:I 0.000176351
3 *162:I 0.000128512
4 *1:13 0.00499055
5 *162:I *1157:A2 0.000379274
6 *162:I *1215:B 5.14116e-06
7 *162:I *102:39 3.00299e-05
8 *1247:I *1173:A1 1.46914e-05
9 *1247:I *1184:A2 0.000442149
10 *1247:I *1188:C 7.72307e-05
11 *1247:I *1189:A2 0
12 *1247:I *33:10 0.000131411
13 *1247:I *80:26 0.00035386
14 *1247:I *83:21 3.40766e-05
15 *1:13 *1145:A1 0.000289873
16 *1:13 *1145:A2 0
17 *1:13 *1147:I 0.000160944
18 *1:13 *1155:A2 0.000130752
19 *1:13 *1189:A2 0
20 *1:13 *1225:CLK 0
21 *1:13 *33:10 0.000410121
22 *1:13 *90:8 3.28611e-05
23 *1:13 *93:21 0
24 *1:13 *113:84 0
25 *1:13 *116:12 0
*RES
1 clk *1:13 41.718 
2 *1:13 *162:I 10.292 
3 *1:13 *1247:I 11.432 
*END

*D_NET *2 0.000561265
*CONN
*P segm[0] O
*I *1250:ZN O *D gf180mcu_fd_sc_mcu7t5v0__tiel
*CAP
1 segm[0] 0.000254346
2 *1250:ZN 0.000254346
3 segm[0] segm[2] 5.25728e-05
*RES
1 *1250:ZN segm[0] 11.014 
*END

*D_NET *3 0.00255239
*CONN
*P segm[10] O
*I *1254:Z O *D gf180mcu_fd_sc_mcu7t5v0__buf_8
*CAP
1 segm[10] 0.00114336
2 *1254:Z 0.00114336
3 segm[10] segm[9] 0.000117156
4 segm[10] *1254:I 3.73535e-05
5 segm[10] *1255:I 7.49908e-05
6 segm[10] *1275:I 3.61829e-05
*RES
1 *1254:Z segm[10] 21.366 
*END

*D_NET *4 0.00268882
*CONN
*P segm[11] O
*I *1265:Z O *D gf180mcu_fd_sc_mcu7t5v0__buf_8
*CAP
1 segm[11] 0.00109766
2 *1265:Z 0.00109766
3 segm[11] segm[3] 0
4 segm[11] segm[5] 1.15676e-05
5 segm[11] *1265:I 9.26705e-05
6 segm[11] *1269:I 0.000389249
7 segm[11] *1272:I 0
*RES
1 *1265:Z segm[11] 21.746 
*END

*D_NET *5 0.00112878
*CONN
*P segm[12] O
*I *1269:Z O *D gf180mcu_fd_sc_mcu7t5v0__buf_8
*CAP
1 segm[12] 0.000447232
2 *1269:Z 0.000447232
3 segm[12] segm[1] 0.000114586
4 segm[12] segm[5] 0.000119727
*RES
1 *1269:Z segm[12] 8.186 
*END

*D_NET *6 0.00198805
*CONN
*P segm[13] O
*I *1270:Z O *D gf180mcu_fd_sc_mcu7t5v0__buf_8
*CAP
1 segm[13] 0.000863919
2 *1270:Z 0.000863919
3 segm[13] segm[1] 0.000114586
4 segm[13] sel[4] 0.000145627
*RES
1 *1270:Z segm[13] 19.846 
*END

*D_NET *7 0.00128146
*CONN
*P segm[1] O
*I *1251:ZN O *D gf180mcu_fd_sc_mcu7t5v0__tiel
*CAP
1 segm[1] 0.000526143
2 *1251:ZN 0.000526143
3 segm[1] *1270:I 0
4 segm[12] segm[1] 0.000114586
5 segm[13] segm[1] 0.000114586
*RES
1 *1251:ZN segm[1] 8.718 
*END

*D_NET *8 0.000717086
*CONN
*P segm[2] O
*I *1252:ZN O *D gf180mcu_fd_sc_mcu7t5v0__tiel
*CAP
1 segm[2] 0.000332256
2 *1252:ZN 0.000332256
3 segm[0] segm[2] 5.25728e-05
*RES
1 *1252:ZN segm[2] 11.242 
*END

*D_NET *9 0.00222964
*CONN
*P segm[3] O
*I *1271:Z O *D gf180mcu_fd_sc_mcu7t5v0__buf_8
*CAP
1 segm[3] 0.000875295
2 *1271:Z 0.000875295
3 segm[3] segm[5] 3.61841e-05
4 segm[3] sel[2] 0.000125372
5 segm[3] *1272:I 0.000317494
6 segm[11] segm[3] 0
*RES
1 *1271:Z segm[3] 19.998 
*END

*D_NET *10 0.000381791
*CONN
*P segm[4] O
*I *1253:ZN O *D gf180mcu_fd_sc_mcu7t5v0__tiel
*CAP
1 segm[4] 0.000190895
2 *1253:ZN 0.000190895
*RES
1 *1253:ZN segm[4] 10.406 
*END

*D_NET *11 0.00255809
*CONN
*P segm[5] O
*I *1272:Z O *D gf180mcu_fd_sc_mcu7t5v0__buf_8
*CAP
1 segm[5] 0.001113
2 *1272:Z 0.001113