*SPEF "ieee 1481-1999"
*DESIGN "ita44"
*DATE "11:11:11 Fri 11 11, 1111"
*VENDOR "OpenRCX"
*PROGRAM "Parallel Extraction"
*VERSION "1.0"
*DESIGN_FLOW "NAME_SCOPE LOCAL" "PIN_CAP NONE"
*DIVIDER /
*DELIMITER :
*BUS_DELIMITER []
*T_UNIT 1 NS
*C_UNIT 1 PF
*R_UNIT 1 OHM
*L_UNIT 1 HENRY

*NAME_MAP
*1 clk
*2 segm[0]
*3 segm[10]
*4 segm[11]
*5 segm[12]
*6 segm[13]
*7 net22
*8 net23
*9 segm[3]
*10 net24
*11 net25
*12 segm[6]
*13 segm[7]
*14 net26
*15 segm[9]
*16 sel[0]
*17 sel[10]
*18 sel[11]
*19 sel[1]
*20 sel[2]
*21 sel[3]
*22 sel[4]
*23 sel[5]
*24 sel[6]
*25 sel[7]
*26 sel[8]
*27 sel[9]
*30 _000_
*31 _001_
*32 _002_
*33 _003_
*34 _004_
*35 _005_
*36 _006_
*37 _007_
*38 _008_
*39 _009_
*40 _010_
*41 _011_
*42 _012_
*43 _013_
*44 _014_
*45 _015_
*46 _016_
*47 _017_
*48 _018_
*49 _019_
*50 _020_
*51 _021_
*52 _022_
*53 _023_
*54 _024_
*55 _025_
*56 _026_
*57 _027_
*58 _028_
*59 _029_
*60 _030_
*61 _031_
*62 _032_
*63 _033_
*64 _034_
*65 _035_
*66 _036_
*67 _037_
*68 _038_
*69 _039_
*70 _040_
*71 _041_
*72 _042_
*73 _043_
*74 _044_
*75 _045_
*76 _046_
*77 _047_
*78 _048_
*79 _049_
*80 _050_
*81 _051_
*82 _052_
*83 _053_
*84 _054_
*85 _055_
*86 _056_
*87 _057_
*88 _058_
*89 _059_
*90 _060_
*91 _061_
*92 _062_
*93 _063_
*94 _064_
*95 _065_
*96 _066_
*97 _067_
*98 _068_
*99 _069_
*100 _070_
*101 _071_
*102 _072_
*103 _073_
*104 _074_
*105 _075_
*106 _076_
*107 _077_
*108 _078_
*109 _079_
*110 _080_
*111 _081_
*112 _082_
*113 _083_
*114 _084_
*115 _085_
*116 _086_
*117 _087_
*118 _088_
*119 _089_
*120 _090_
*121 _091_
*122 _092_
*123 _093_
*124 _094_
*125 _095_
*126 clknet_0_clk
*127 clknet_1_0__leaf_clk
*128 clknet_1_1__leaf_clk
*129 dut44\.count\[0\]
*130 dut44\.count\[1\]
*131 dut44\.count\[2\]
*132 dut44\.count\[3\]
*133 net1
*134 net10
*135 net11
*136 net12
*137 net13
*138 net14
*139 net15
*140 net16
*141 net17
*142 net18
*143 net19
*144 net2
*145 net20
*146 net21
*147 net3
*148 net4
*149 net5
*150 net6
*151 net7
*152 net8
*153 net9
*154 ANTENNA__144__A3
*155 ANTENNA__166__A3
*156 ANTENNA__177__A1
*157 ANTENNA__181__A3
*158 ANTENNA__192__CLK
*159 ANTENNA__193__CLK
*160 ANTENNA__194__CLK
*161 ANTENNA__195__CLK
*162 ANTENNA__196__CLK
*163 ANTENNA__197__CLK
*164 ANTENNA__198__CLK
*165 ANTENNA__199__CLK
*166 ANTENNA__200__CLK
*167 ANTENNA__201__CLK
*168 ANTENNA__202__CLK
*169 ANTENNA__203__CLK
*170 ANTENNA__204__CLK
*171 ANTENNA__205__CLK
*172 ANTENNA__206__CLK
*173 ANTENNA__207__CLK
*174 ANTENNA__208__CLK
*175 ANTENNA__209__CLK
*176 ANTENNA__210__CLK
*177 ANTENNA__211__CLK
*178 ANTENNA__212__CLK
*179 ANTENNA__213__CLK
*180 ANTENNA__214__CLK
*181 ANTENNA__215__CLK
*182 ANTENNA_clkbuf_0_clk_I
*183 FILLER_0_0_104
*184 FILLER_0_0_138
*185 FILLER_0_0_165
*186 FILLER_0_0_169
*187 FILLER_0_0_172
*188 FILLER_0_0_2
*189 FILLER_0_0_232
*190 FILLER_0_0_236
*191 FILLER_0_0_240
*192 FILLER_0_0_274
*193 FILLER_0_0_308
*194 FILLER_0_0_342
*195 FILLER_0_0_346
*196 FILLER_0_0_348
*197 FILLER_0_0_36
*198 FILLER_0_0_70
*199 FILLER_0_10_101
*200 FILLER_0_10_107
*201 FILLER_0_10_171
*202 FILLER_0_10_177
*203 FILLER_0_10_2
*204 FILLER_0_10_241
*205 FILLER_0_10_247
*206 FILLER_0_10_311
*207 FILLER_0_10_317
*208 FILLER_0_10_34
*209 FILLER_0_10_37
*210 FILLER_0_11_136
*211 FILLER_0_11_142
*212 FILLER_0_11_2
*213 FILLER_0_11_206
*214 FILLER_0_11_212
*215 FILLER_0_11_276
*216 FILLER_0_11_282
*217 FILLER_0_11_346
*218 FILLER_0_11_348
*219 FILLER_0_11_66
*220 FILLER_0_11_72
*221 FILLER_0_12_101
*222 FILLER_0_12_107
*223 FILLER_0_12_171
*224 FILLER_0_12_177
*225 FILLER_0_12_183
*226 FILLER_0_12_2
*227 FILLER_0_12_215
*228 FILLER_0_12_231
*229 FILLER_0_12_239
*230 FILLER_0_12_243
*231 FILLER_0_12_247
*232 FILLER_0_12_311
*233 FILLER_0_12_317
*234 FILLER_0_12_34
*235 FILLER_0_12_37
*236 FILLER_0_13_136
*237 FILLER_0_13_142
*238 FILLER_0_13_150
*239 FILLER_0_13_2
*240 FILLER_0_13_212
*241 FILLER_0_13_216
*242 FILLER_0_13_282
*243 FILLER_0_13_346
*244 FILLER_0_13_348
*245 FILLER_0_13_66
*246 FILLER_0_13_72
*247 FILLER_0_14_101
*248 FILLER_0_14_107
*249 FILLER_0_14_123
*250 FILLER_0_14_160
*251 FILLER_0_14_164
*252 FILLER_0_14_172
*253 FILLER_0_14_174
*254 FILLER_0_14_177
*255 FILLER_0_14_185
*256 FILLER_0_14_189
*257 FILLER_0_14_2
*258 FILLER_0_14_219
*259 FILLER_0_14_223
*260 FILLER_0_14_239
*261 FILLER_0_14_243
*262 FILLER_0_14_247
*263 FILLER_0_14_311
*264 FILLER_0_14_317
*265 FILLER_0_14_34
*266 FILLER_0_14_37
*267 FILLER_0_15_104
*268 FILLER_0_15_108
*269 FILLER_0_15_110
*270 FILLER_0_15_142
*271 FILLER_0_15_146
*272 FILLER_0_15_162
*273 FILLER_0_15_182
*274 FILLER_0_15_196
*275 FILLER_0_15_2
*276 FILLER_0_15_204
*277 FILLER_0_15_208
*278 FILLER_0_15_216
*279 FILLER_0_15_282
*280 FILLER_0_15_346
*281 FILLER_0_15_348
*282 FILLER_0_15_66
*283 FILLER_0_15_72
*284 FILLER_0_16_101
*285 FILLER_0_16_136
*286 FILLER_0_16_143
*287 FILLER_0_16_147
*288 FILLER_0_16_155
*289 FILLER_0_16_163
*290 FILLER_0_16_171
*291 FILLER_0_16_183
*292 FILLER_0_16_187
*293 FILLER_0_16_199
*294 FILLER_0_16_2
*295 FILLER_0_16_231
*296 FILLER_0_16_239
*297 FILLER_0_16_243
*298 FILLER_0_16_247
*299 FILLER_0_16_311
*300 FILLER_0_16_317
*301 FILLER_0_16_34
*302 FILLER_0_16_37
*303 FILLER_0_17_125
*304 FILLER_0_17_129
*305 FILLER_0_17_137
*306 FILLER_0_17_139
*307 FILLER_0_17_151
*308 FILLER_0_17_166
*309 FILLER_0_17_173
*310 FILLER_0_17_2
*311 FILLER_0_17_201
*312 FILLER_0_17_209
*313 FILLER_0_17_212
*314 FILLER_0_17_220
*315 FILLER_0_17_222
*316 FILLER_0_17_252
*317 FILLER_0_17_256
*318 FILLER_0_17_272
*319 FILLER_0_17_282
*320 FILLER_0_17_346
*321 FILLER_0_17_348
*322 FILLER_0_17_66
*323 FILLER_0_17_72
*324 FILLER_0_17_88
*325 FILLER_0_18_101
*326 FILLER_0_18_107
*327 FILLER_0_18_121
*328 FILLER_0_18_125
*329 FILLER_0_18_141
*330 FILLER_0_18_159
*331 FILLER_0_18_166
*332 FILLER_0_18_174
*333 FILLER_0_18_177
*334 FILLER_0_18_179
*335 FILLER_0_18_186
*336 FILLER_0_18_188
*337 FILLER_0_18_195
*338 FILLER_0_18_235
*339 FILLER_0_18_239
*340 FILLER_0_18_244
*341 FILLER_0_18_247
*342 FILLER_0_18_28
*343 FILLER_0_18_311
*344 FILLER_0_18_317
*345 FILLER_0_18_32
*346 FILLER_0_18_321
*347 FILLER_0_18_34
*348 FILLER_0_18_37
*349 FILLER_0_19_104
*350 FILLER_0_19_136
*351 FILLER_0_19_142
*352 FILLER_0_19_144
*353 FILLER_0_19_169
*354 FILLER_0_19_182
*355 FILLER_0_19_2
*356 FILLER_0_19_204
*357 FILLER_0_19_208
*358 FILLER_0_19_220
*359 FILLER_0_19_233
*360 FILLER_0_19_265
*361 FILLER_0_19_273
*362 FILLER_0_19_277
*363 FILLER_0_19_279
*364 FILLER_0_19_282
*365 FILLER_0_19_314
*366 FILLER_0_19_322
*367 FILLER_0_19_66
*368 FILLER_0_19_72
*369 FILLER_0_1_136
*370 FILLER_0_1_142
*371 FILLER_0_1_2
*372 FILLER_0_1_206
*373 FILLER_0_1_238
*374 FILLER_0_1_270
*375 FILLER_0_1_278
*376 FILLER_0_1_282
*377 FILLER_0_1_346
*378 FILLER_0_1_348
*379 FILLER_0_1_66
*380 FILLER_0_1_72
*381 FILLER_0_20_103
*382 FILLER_0_20_107
*383 FILLER_0_20_117
*384 FILLER_0_20_119
*385 FILLER_0_20_126
*386 FILLER_0_20_146
*387 FILLER_0_20_154
*388 FILLER_0_20_162
*389 FILLER_0_20_166
*390 FILLER_0_20_168
*391 FILLER_0_20_196
*392 FILLER_0_20_2
*393 FILLER_0_20_204
*394 FILLER_0_20_208
*395 FILLER_0_20_210
*396 FILLER_0_20_213
*397 FILLER_0_20_217
*398 FILLER_0_20_221
*399 FILLER_0_20_237
*400 FILLER_0_20_247
*401 FILLER_0_20_311
*402 FILLER_0_20_317
*403 FILLER_0_20_34
*404 FILLER_0_20_37
*405 FILLER_0_20_69
*406 FILLER_0_20_85
*407 FILLER_0_20_93
*408 FILLER_0_21_128
*409 FILLER_0_21_132
*410 FILLER_0_21_152
*411 FILLER_0_21_173
*412 FILLER_0_21_189
*413 FILLER_0_21_196
*414 FILLER_0_21_2
*415 FILLER_0_21_212
*416 FILLER_0_21_254
*417 FILLER_0_21_258
*418 FILLER_0_21_274
*419 FILLER_0_21_278
*420 FILLER_0_21_282
*421 FILLER_0_21_346
*422 FILLER_0_21_348
*423 FILLER_0_21_66
*424 FILLER_0_21_72
*425 FILLER_0_21_80
*426 FILLER_0_21_84
*427 FILLER_0_22_101
*428 FILLER_0_22_107
*429 FILLER_0_22_111
*430 FILLER_0_22_119
*431 FILLER_0_22_173
*432 FILLER_0_22_177
*433 FILLER_0_22_190
*434 FILLER_0_22_192
*435 FILLER_0_22_2
*436 FILLER_0_22_243
*437 FILLER_0_22_259
*438 FILLER_0_22_263
*439 FILLER_0_22_295
*440 FILLER_0_22_311
*441 FILLER_0_22_317
*442 FILLER_0_22_321
*443 FILLER_0_22_34
*444 FILLER_0_22_37
*445 FILLER_0_23_115
*446 FILLER_0_23_124
*447 FILLER_0_23_154
*448 FILLER_0_23_2
*449 FILLER_0_23_208
*450 FILLER_0_23_253
*451 FILLER_0_23_257
*452 FILLER_0_23_273
*453 FILLER_0_23_277
*454 FILLER_0_23_279
*455 FILLER_0_23_282
*456 FILLER_0_23_314
*457 FILLER_0_23_322
*458 FILLER_0_23_66
*459 FILLER_0_23_72
*460 FILLER_0_23_80
*461 FILLER_0_23_84
*462 FILLER_0_24_101
*463 FILLER_0_24_107
*464 FILLER_0_24_121
*465 FILLER_0_24_125
*466 FILLER_0_24_133
*467 FILLER_0_24_137
*468 FILLER_0_24_162
*469 FILLER_0_24_2
*470 FILLER_0_24_223
*471 FILLER_0_24_227
*472 FILLER_0_24_235
*473 FILLER_0_24_241
*474 FILLER_0_24_247
*475 FILLER_0_24_311
*476 FILLER_0_24_317
*477 FILLER_0_24_321
*478 FILLER_0_24_34
*479 FILLER_0_24_37
*480 FILLER_0_25_129
*481 FILLER_0_25_139
*482 FILLER_0_25_142
*483 FILLER_0_25_209
*484 FILLER_0_25_212
*485 FILLER_0_25_276
*486 FILLER_0_25_28
*487 FILLER_0_25_282
*488 FILLER_0_25_314
*489 FILLER_0_25_322
*490 FILLER_0_25_60
*491 FILLER_0_25_68
*492 FILLER_0_25_72
*493 FILLER_0_25_88
*494 FILLER_0_26_101
*495 FILLER_0_26_113
*496 FILLER_0_26_117
*497 FILLER_0_26_119
*498 FILLER_0_26_154
*499 FILLER_0_26_158
*500 FILLER_0_26_174
*501 FILLER_0_26_177
*502 FILLER_0_26_193
*503 FILLER_0_26_201
*504 FILLER_0_26_203
*505 FILLER_0_26_206
*506 FILLER_0_26_238
*507 FILLER_0_26_242
*508 FILLER_0_26_244
*509 FILLER_0_26_247
*510 FILLER_0_26_28
*511 FILLER_0_26_311
*512 FILLER_0_26_317
*513 FILLER_0_26_32
*514 FILLER_0_26_34
*515 FILLER_0_26_37
*516 FILLER_0_27_136
*517 FILLER_0_27_142
*518 FILLER_0_27_174
*519 FILLER_0_27_183
*520 FILLER_0_27_191
*521 FILLER_0_27_195
*522 FILLER_0_27_197
*523 FILLER_0_27_204
*524 FILLER_0_27_208
*525 FILLER_0_27_221
*526 FILLER_0_27_226
*527 FILLER_0_27_258
*528 FILLER_0_27_274
*529 FILLER_0_27_278
*530 FILLER_0_27_28
*531 FILLER_0_27_282
*532 FILLER_0_27_346
*533 FILLER_0_27_348
*534 FILLER_0_27_60
*535 FILLER_0_27_68
*536 FILLER_0_27_72
*537 FILLER_0_28_101
*538 FILLER_0_28_107
*539 FILLER_0_28_123
*540 FILLER_0_28_125
*541 FILLER_0_28_134
*542 FILLER_0_28_140
*543 FILLER_0_28_172
*544 FILLER_0_28_174
*545 FILLER_0_28_191
*546 FILLER_0_28_199
*547 FILLER_0_28_2
*548 FILLER_0_28_203
*549 FILLER_0_28_205
*550 FILLER_0_28_235
*551 FILLER_0_28_239
*552 FILLER_0_28_243
*553 FILLER_0_28_247
*554 FILLER_0_28_311
*555 FILLER_0_28_317
*556 FILLER_0_28_321
*557 FILLER_0_28_34
*558 FILLER_0_28_37
*559 FILLER_0_29_104
*560 FILLER_0_29_108
*561 FILLER_0_29_138
*562 FILLER_0_29_156
*563 FILLER_0_29_160
*564 FILLER_0_29_190
*565 FILLER_0_29_196
*566 FILLER_0_29_2
*567 FILLER_0_29_200
*568 FILLER_0_29_206
*569 FILLER_0_29_212
*570 FILLER_0_29_276
*571 FILLER_0_29_282
*572 FILLER_0_29_346
*573 FILLER_0_29_348
*574 FILLER_0_29_66
*575 FILLER_0_29_72
*576 FILLER_0_2_101
*577 FILLER_0_2_107
*578 FILLER_0_2_171
*579 FILLER_0_2_177
*580 FILLER_0_2_2
*581 FILLER_0_2_241
*582 FILLER_0_2_247
*583 FILLER_0_2_311
*584 FILLER_0_2_317
*585 FILLER_0_2_34
*586 FILLER_0_2_37
*587 FILLER_0_30_101
*588 FILLER_0_30_107
*589 FILLER_0_30_123
*590 FILLER_0_30_125
*591 FILLER_0_30_155
*592 FILLER_0_30_159
*593 FILLER_0_30_2
*594 FILLER_0_30_215
*595 FILLER_0_30_219
*596 FILLER_0_30_235
*597 FILLER_0_30_243
*598 FILLER_0_30_247
*599 FILLER_0_30_311
*600 FILLER_0_30_317
*601 FILLER_0_30_333
*602 FILLER_0_30_34
*603 FILLER_0_30_341
*604 FILLER_0_30_37
*605 FILLER_0_31_104
*606 FILLER_0_31_120
*607 FILLER_0_31_138
*608 FILLER_0_31_142
*609 FILLER_0_31_158
*610 FILLER_0_31_162
*611 FILLER_0_31_192
*612 FILLER_0_31_196
*613 FILLER_0_31_2
*614 FILLER_0_31_204
*615 FILLER_0_31_208
*616 FILLER_0_31_212
*617 FILLER_0_31_276
*618 FILLER_0_31_282
*619 FILLER_0_31_346
*620 FILLER_0_31_348
*621 FILLER_0_31_66
*622 FILLER_0_31_72
*623 FILLER_0_32_101
*624 FILLER_0_32_107
*625 FILLER_0_32_171
*626 FILLER_0_32_177
*627 FILLER_0_32_2
*628 FILLER_0_32_241
*629 FILLER_0_32_247
*630 FILLER_0_32_311
*631 FILLER_0_32_317
*632 FILLER_0_32_34
*633 FILLER_0_32_37
*634 FILLER_0_33_136
*635 FILLER_0_33_142
*636 FILLER_0_33_2
*637 FILLER_0_33_206
*638 FILLER_0_33_212
*639 FILLER_0_33_276
*640 FILLER_0_33_282
*641 FILLER_0_33_346
*642 FILLER_0_33_348
*643 FILLER_0_33_66
*644 FILLER_0_33_72
*645 FILLER_0_34_101
*646 FILLER_0_34_107
*647 FILLER_0_34_171
*648 FILLER_0_34_177
*649 FILLER_0_34_2
*650 FILLER_0_34_241
*651 FILLER_0_34_247
*652 FILLER_0_34_311
*653 FILLER_0_34_317
*654 FILLER_0_34_34
*655 FILLER_0_34_37
*656 FILLER_0_35_136
*657 FILLER_0_35_142
*658 FILLER_0_35_206
*659 FILLER_0_35_212
*660 FILLER_0_35_276
*661 FILLER_0_35_282
*662 FILLER_0_35_346
*663 FILLER_0_35_348
*664 FILLER_0_35_6
*665 FILLER_0_35_72
*666 FILLER_0_36_101
*667 FILLER_0_36_107
*668 FILLER_0_36_171
*669 FILLER_0_36_177
*670 FILLER_0_36_2
*671 FILLER_0_36_241
*672 FILLER_0_36_247
*673 FILLER_0_36_311
*674 FILLER_0_36_317
*675 FILLER_0_36_34
*676 FILLER_0_36_37
*677 FILLER_0_37_136
*678 FILLER_0_37_142
*679 FILLER_0_37_2
*680 FILLER_0_37_206
*681 FILLER_0_37_212
*682 FILLER_0_37_276
*683 FILLER_0_37_282
*684 FILLER_0_37_346
*685 FILLER_0_37_348
*686 FILLER_0_37_66
*687 FILLER_0_37_72
*688 FILLER_0_38_101
*689 FILLER_0_38_107
*690 FILLER_0_38_171
*691 FILLER_0_38_177
*692 FILLER_0_38_2
*693 FILLER_0_38_241
*694 FILLER_0_38_247
*695 FILLER_0_38_311
*696 FILLER_0_38_317
*697 FILLER_0_38_34
*698 FILLER_0_38_37
*699 FILLER_0_39_136
*700 FILLER_0_39_142
*701 FILLER_0_39_2
*702 FILLER_0_39_206
*703 FILLER_0_39_212
*704 FILLER_0_39_276
*705 FILLER_0_39_282
*706 FILLER_0_39_346
*707 FILLER_0_39_348
*708 FILLER_0_39_66
*709 FILLER_0_39_72
*710 FILLER_0_3_136
*711 FILLER_0_3_142
*712 FILLER_0_3_2
*713 FILLER_0_3_206
*714 FILLER_0_3_212
*715 FILLER_0_3_276
*716 FILLER_0_3_282
*717 FILLER_0_3_346
*718 FILLER_0_3_348
*719 FILLER_0_3_66
*720 FILLER_0_3_72
*721 FILLER_0_40_101
*722 FILLER_0_40_107
*723 FILLER_0_40_171
*724 FILLER_0_40_177
*725 FILLER_0_40_2
*726 FILLER_0_40_241
*727 FILLER_0_40_247
*728 FILLER_0_40_311
*729 FILLER_0_40_317
*730 FILLER_0_40_34
*731 FILLER_0_40_37
*732 FILLER_0_41_136
*733 FILLER_0_41_142
*734 FILLER_0_41_2
*735 FILLER_0_41_206
*736 FILLER_0_41_212
*737 FILLER_0_41_276
*738 FILLER_0_41_282
*739 FILLER_0_41_346
*740 FILLER_0_41_348
*741 FILLER_0_41_66
*742 FILLER_0_41_72
*743 FILLER_0_42_101
*744 FILLER_0_42_107
*745 FILLER_0_42_123
*746 FILLER_0_42_131
*747 FILLER_0_42_159
*748 FILLER_0_42_177
*749 FILLER_0_42_2
*750 FILLER_0_42_241
*751 FILLER_0_42_247
*752 FILLER_0_42_311
*753 FILLER_0_42_317
*754 FILLER_0_42_34
*755 FILLER_0_42_37
*756 FILLER_0_43_136
*757 FILLER_0_43_168
*758 FILLER_0_43_172
*759 FILLER_0_43_174
*760 FILLER_0_43_2
*761 FILLER_0_43_201
*762 FILLER_0_43_209
*763 FILLER_0_43_238
*764 FILLER_0_43_270
*765 FILLER_0_43_278
*766 FILLER_0_43_282
*767 FILLER_0_43_346
*768 FILLER_0_43_348
*769 FILLER_0_43_66
*770 FILLER_0_43_72
*771 FILLER_0_44_104
*772 FILLER_0_44_138
*773 FILLER_0_44_142
*774 FILLER_0_44_172
*775 FILLER_0_44_176
*776 FILLER_0_44_2
*777 FILLER_0_44_236
*778 FILLER_0_44_240
*779 FILLER_0_44_274
*780 FILLER_0_44_290
*781 FILLER_0_44_294
*782 FILLER_0_44_299
*783 FILLER_0_44_303
*784 FILLER_0_44_305
*785 FILLER_0_44_308
*786 FILLER_0_44_342
*787 FILLER_0_44_346
*788 FILLER_0_44_348
*789 FILLER_0_44_36
*790 FILLER_0_44_41
*791 FILLER_0_44_57
*792 FILLER_0_44_65
*793 FILLER_0_44_67
*794 FILLER_0_44_70
*795 FILLER_0_4_101
*796 FILLER_0_4_107
*797 FILLER_0_4_171
*798 FILLER_0_4_177
*799 FILLER_0_4_2
*800 FILLER_0_4_241
*801 FILLER_0_4_247
*802 FILLER_0_4_311
*803 FILLER_0_4_317
*804 FILLER_0_4_34
*805 FILLER_0_4_37
*806 FILLER_0_5_136
*807 FILLER_0_5_142
*808 FILLER_0_5_2
*809 FILLER_0_5_206
*810 FILLER_0_5_212
*811 FILLER_0_5_276
*812 FILLER_0_5_282
*813 FILLER_0_5_346
*814 FILLER_0_5_348
*815 FILLER_0_5_66
*816 FILLER_0_5_72
*817 FILLER_0_6_101
*818 FILLER_0_6_107
*819 FILLER_0_6_171
*820 FILLER_0_6_177
*821 FILLER_0_6_2
*822 FILLER_0_6_241
*823 FILLER_0_6_247
*824 FILLER_0_6_311
*825 FILLER_0_6_317
*826 FILLER_0_6_34
*827 FILLER_0_6_37
*828 FILLER_0_7_136
*829 FILLER_0_7_142
*830 FILLER_0_7_2
*831 FILLER_0_7_206
*832 FILLER_0_7_212
*833 FILLER_0_7_276
*834 FILLER_0_7_282
*835 FILLER_0_7_346
*836 FILLER_0_7_348
*837 FILLER_0_7_66
*838 FILLER_0_7_72
*839 FILLER_0_8_101
*840 FILLER_0_8_107
*841 FILLER_0_8_171
*842 FILLER_0_8_177
*843 FILLER_0_8_2
*844 FILLER_0_8_241
*845 FILLER_0_8_247
*846 FILLER_0_8_311
*847 FILLER_0_8_317
*848 FILLER_0_8_34
*849 FILLER_0_8_37
*850 FILLER_0_9_136
*851 FILLER_0_9_142
*852 FILLER_0_9_2
*853 FILLER_0_9_206
*854 FILLER_0_9_212
*855 FILLER_0_9_276
*856 FILLER_0_9_282
*857 FILLER_0_9_346
*858 FILLER_0_9_348
*859 FILLER_0_9_66
*860 FILLER_0_9_72
*861 PHY_EDGE_ROW_0_Left_45
*862 PHY_EDGE_ROW_0_Right_0
*863 PHY_EDGE_ROW_10_Left_55
*864 PHY_EDGE_ROW_10_Right_10
*865 PHY_EDGE_ROW_11_Left_56
*866 PHY_EDGE_ROW_11_Right_11
*867 PHY_EDGE_ROW_12_Left_57
*868 PHY_EDGE_ROW_12_Right_12
*869 PHY_EDGE_ROW_13_Left_58
*870 PHY_EDGE_ROW_13_Right_13
*871 PHY_EDGE_ROW_14_Left_59
*872 PHY_EDGE_ROW_14_Right_14
*873 PHY_EDGE_ROW_15_Left_60
*874 PHY_EDGE_ROW_15_Right_15
*875 PHY_EDGE_ROW_16_Left_61
*876 PHY_EDGE_ROW_16_Right_16
*877 PHY_EDGE_ROW_17_Left_62
*878 PHY_EDGE_ROW_17_Right_17
*879 PHY_EDGE_ROW_18_Left_63
*880 PHY_EDGE_ROW_18_Right_18
*881 PHY_EDGE_ROW_19_Left_64
*882 PHY_EDGE_ROW_19_Right_19
*883 PHY_EDGE_ROW_1_Left_46
*884 PHY_EDGE_ROW_1_Right_1
*885 PHY_EDGE_ROW_20_Left_65
*886 PHY_EDGE_ROW_20_Right_20
*887 PHY_EDGE_ROW_21_Left_66
*888 PHY_EDGE_ROW_21_Right_21
*889 PHY_EDGE_ROW_22_Left_67
*890 PHY_EDGE_ROW_22_Right_22
*891 PHY_EDGE_ROW_23_Left_68
*892 PHY_EDGE_ROW_23_Right_23
*893 PHY_EDGE_ROW_24_Left_69
*894 PHY_EDGE_ROW_24_Right_24
*895 PHY_EDGE_ROW_25_Left_70
*896 PHY_EDGE_ROW_25_Right_25
*897 PHY_EDGE_ROW_26_Left_71
*898 PHY_EDGE_ROW_26_Right_26
*899 PHY_EDGE_ROW_27_Left_72
*900 PHY_EDGE_ROW_27_Right_27
*901 PHY_EDGE_ROW_28_Left_73
*902 PHY_EDGE_ROW_28_Right_28
*903 PHY_EDGE_ROW_29_Left_74
*904 PHY_EDGE_ROW_29_Right_29
*905 PHY_EDGE_ROW_2_Left_47
*906 PHY_EDGE_ROW_2_Right_2
*907 PHY_EDGE_ROW_30_Left_75
*908 PHY_EDGE_ROW_30_Right_30
*909 PHY_EDGE_ROW_31_Left_76
*910 PHY_EDGE_ROW_31_Right_31
*911 PHY_EDGE_ROW_32_Left_77
*912 PHY_EDGE_ROW_32_Right_32
*913 PHY_EDGE_ROW_33_Left_78
*914 PHY_EDGE_ROW_33_Right_33
*915 PHY_EDGE_ROW_34_Left_79
*916 PHY_EDGE_ROW_34_Right_34
*917 PHY_EDGE_ROW_35_Left_80
*918 PHY_EDGE_ROW_35_Right_35
*919 PHY_EDGE_ROW_36_Left_81
*920 PHY_EDGE_ROW_36_Right_36
*921 PHY_EDGE_ROW_37_Left_82
*922 PHY_EDGE_ROW_37_Right_37
*923 PHY_EDGE_ROW_38_Left_83
*924 PHY_EDGE_ROW_38_Right_38
*925 PHY_EDGE_ROW_39_Left_84
*926 PHY_EDGE_ROW_39_Right_39
*927 PHY_EDGE_ROW_3_Left_48
*928 PHY_EDGE_ROW_3_Right_3
*929 PHY_EDGE_ROW_40_Left_85
*930 PHY_EDGE_ROW_40_Right_40
*931 PHY_EDGE_ROW_41_Left_86
*932 PHY_EDGE_ROW_41_Right_41
*933 PHY_EDGE_ROW_42_Left_87
*934 PHY_EDGE_ROW_42_Right_42
*935 PHY_EDGE_ROW_43_Left_88
*936 PHY_EDGE_ROW_43_Right_43
*937 PHY_EDGE_ROW_44_Left_89
*938 PHY_EDGE_ROW_44_Right_44
*939 PHY_EDGE_ROW_4_Left_49
*940 PHY_EDGE_ROW_4_Right_4
*941 PHY_EDGE_ROW_5_Left_50
*942 PHY_EDGE_ROW_5_Right_5
*943 PHY_EDGE_ROW_6_Left_51
*944 PHY_EDGE_ROW_6_Right_6
*945 PHY_EDGE_ROW_7_Left_52
*946 PHY_EDGE_ROW_7_Right_7
*947 PHY_EDGE_ROW_8_Left_53
*948 PHY_EDGE_ROW_8_Right_8
*949 PHY_EDGE_ROW_9_Left_54
*950 PHY_EDGE_ROW_9_Right_9
*951 TAP_TAPCELL_ROW_0_90
*952 TAP_TAPCELL_ROW_0_91
*953 TAP_TAPCELL_ROW_0_92
*954 TAP_TAPCELL_ROW_0_93
*955 TAP_TAPCELL_ROW_0_94
*956 TAP_TAPCELL_ROW_0_95
*957 TAP_TAPCELL_ROW_0_96
*958 TAP_TAPCELL_ROW_0_97
*959 TAP_TAPCELL_ROW_0_98
*960 TAP_TAPCELL_ROW_0_99
*961 TAP_TAPCELL_ROW_10_140
*962 TAP_TAPCELL_ROW_10_141
*963 TAP_TAPCELL_ROW_10_142
*964 TAP_TAPCELL_ROW_10_143
*965 TAP_TAPCELL_ROW_10_144
*966 TAP_TAPCELL_ROW_11_145
*967 TAP_TAPCELL_ROW_11_146
*968 TAP_TAPCELL_ROW_11_147
*969 TAP_TAPCELL_ROW_11_148
*970 TAP_TAPCELL_ROW_12_149
*971 TAP_TAPCELL_ROW_12_150
*972 TAP_TAPCELL_ROW_12_151
*973 TAP_TAPCELL_ROW_12_152
*974 TAP_TAPCELL_ROW_12_153
*975 TAP_TAPCELL_ROW_13_154
*976 TAP_TAPCELL_ROW_13_155
*977 TAP_TAPCELL_ROW_13_156
*978 TAP_TAPCELL_ROW_13_157
*979 TAP_TAPCELL_ROW_14_158
*980 TAP_TAPCELL_ROW_14_159
*981 TAP_TAPCELL_ROW_14_160
*982 TAP_TAPCELL_ROW_14_161
*983 TAP_TAPCELL_ROW_14_162
*984 TAP_TAPCELL_ROW_15_163
*985 TAP_TAPCELL_ROW_15_164
*986 TAP_TAPCELL_ROW_15_165
*987 TAP_TAPCELL_ROW_15_166
*988 TAP_TAPCELL_ROW_16_167
*989 TAP_TAPCELL_ROW_16_168
*990 TAP_TAPCELL_ROW_16_169
*991 TAP_TAPCELL_ROW_16_170
*992 TAP_TAPCELL_ROW_16_171
*993 TAP_TAPCELL_ROW_17_172
*994 TAP_TAPCELL_ROW_17_173
*995 TAP_TAPCELL_ROW_17_174
*996 TAP_TAPCELL_ROW_17_175
*997 TAP_TAPCELL_ROW_18_176
*998 TAP_TAPCELL_ROW_18_177
*999 TAP_TAPCELL_ROW_18_178
*1000 TAP_TAPCELL_ROW_18_179
*1001 TAP_TAPCELL_ROW_18_180
*1002 TAP_TAPCELL_ROW_19_181
*1003 TAP_TAPCELL_ROW_19_182
*1004 TAP_TAPCELL_ROW_19_183
*1005 TAP_TAPCELL_ROW_19_184
*1006 TAP_TAPCELL_ROW_1_100
*1007 TAP_TAPCELL_ROW_1_101
*1008 TAP_TAPCELL_ROW_1_102
*1009 TAP_TAPCELL_ROW_1_103
*1010 TAP_TAPCELL_ROW_20_185
*1011 TAP_TAPCELL_ROW_20_186
*1012 TAP_TAPCELL_ROW_20_187
*1013 TAP_TAPCELL_ROW_20_188
*1014 TAP_TAPCELL_ROW_20_189
*1015 TAP_TAPCELL_ROW_21_190
*1016 TAP_TAPCELL_ROW_21_191
*1017 TAP_TAPCELL_ROW_21_192
*1018 TAP_TAPCELL_ROW_21_193
*1019 TAP_TAPCELL_ROW_22_194
*1020 TAP_TAPCELL_ROW_22_195
*1021 TAP_TAPCELL_ROW_22_196
*1022 TAP_TAPCELL_ROW_22_197
*1023 TAP_TAPCELL_ROW_22_198
*1024 TAP_TAPCELL_ROW_23_199
*1025 TAP_TAPCELL_ROW_23_200
*1026 TAP_TAPCELL_ROW_23_201
*1027 TAP_TAPCELL_ROW_23_202
*1028 TAP_TAPCELL_ROW_24_203
*1029 TAP_TAPCELL_ROW_24_204
*1030 TAP_TAPCELL_ROW_24_205
*1031 TAP_TAPCELL_ROW_24_206
*1032 TAP_TAPCELL_ROW_24_207
*1033 TAP_TAPCELL_ROW_25_208
*1034 TAP_TAPCELL_ROW_25_209
*1035 TAP_TAPCELL_ROW_25_210
*1036 TAP_TAPCELL_ROW_25_211
*1037 TAP_TAPCELL_ROW_26_212
*1038 TAP_TAPCELL_ROW_26_213
*1039 TAP_TAPCELL_ROW_26_214
*1040 TAP_TAPCELL_ROW_26_215
*1041 TAP_TAPCELL_ROW_26_216
*1042 TAP_TAPCELL_ROW_27_217
*1043 TAP_TAPCELL_ROW_27_218
*1044 TAP_TAPCELL_ROW_27_219
*1045 TAP_TAPCELL_ROW_27_220
*1046 TAP_TAPCELL_ROW_28_221
*1047 TAP_TAPCELL_ROW_28_222
*1048 TAP_TAPCELL_ROW_28_223
*1049 TAP_TAPCELL_ROW_28_224
*1050 TAP_TAPCELL_ROW_28_225
*1051 TAP_TAPCELL_ROW_29_226
*1052 TAP_TAPCELL_ROW_29_227
*1053 TAP_TAPCELL_ROW_29_228
*1054 TAP_TAPCELL_ROW_29_229
*1055 TAP_TAPCELL_ROW_2_104
*1056 TAP_TAPCELL_ROW_2_105
*1057 TAP_TAPCELL_ROW_2_106
*1058 TAP_TAPCELL_ROW_2_107
*1059 TAP_TAPCELL_ROW_2_108
*1060 TAP_TAPCELL_ROW_30_230
*1061 TAP_TAPCELL_ROW_30_231
*1062 TAP_TAPCELL_ROW_30_232
*1063 TAP_TAPCELL_ROW_30_233
*1064 TAP_TAPCELL_ROW_30_234
*1065 TAP_TAPCELL_ROW_31_235
*1066 TAP_TAPCELL_ROW_31_236
*1067 TAP_TAPCELL_ROW_31_237
*1068 TAP_TAPCELL_ROW_31_238
*1069 TAP_TAPCELL_ROW_32_239
*1070 TAP_TAPCELL_ROW_32_240
*1071 TAP_TAPCELL_ROW_32_241
*1072 TAP_TAPCELL_ROW_32_242
*1073 TAP_TAPCELL_ROW_32_243
*1074 TAP_TAPCELL_ROW_33_244
*1075 TAP_TAPCELL_ROW_33_245
*1076 TAP_TAPCELL_ROW_33_246
*1077 TAP_TAPCELL_ROW_33_247
*1078 TAP_TAPCELL_ROW_34_248
*1079 TAP_TAPCELL_ROW_34_249
*1080 TAP_TAPCELL_ROW_34_250
*1081 TAP_TAPCELL_ROW_34_251
*1082 TAP_TAPCELL_ROW_34_252
*1083 TAP_TAPCELL_ROW_35_253
*1084 TAP_TAPCELL_ROW_35_254
*1085 TAP_TAPCELL_ROW_35_255
*1086 TAP_TAPCELL_ROW_35_256
*1087 TAP_TAPCELL_ROW_36_257
*1088 TAP_TAPCELL_ROW_36_258
*1089 TAP_TAPCELL_ROW_36_259
*1090 TAP_TAPCELL_ROW_36_260
*1091 TAP_TAPCELL_ROW_36_261
*1092 TAP_TAPCELL_ROW_37_262
*1093 TAP_TAPCELL_ROW_37_263
*1094 TAP_TAPCELL_ROW_37_264
*1095 TAP_TAPCELL_ROW_37_265
*1096 TAP_TAPCELL_ROW_38_266
*1097 TAP_TAPCELL_ROW_38_267
*1098 TAP_TAPCELL_ROW_38_268
*1099 TAP_TAPCELL_ROW_38_269
*1100 TAP_TAPCELL_ROW_38_270
*1101 TAP_TAPCELL_ROW_39_271
*1102 TAP_TAPCELL_ROW_39_272
*1103 TAP_TAPCELL_ROW_39_273
*1104 TAP_TAPCELL_ROW_39_274
*1105 TAP_TAPCELL_ROW_3_109
*1106 TAP_TAPCELL_ROW_3_110
*1107 TAP_TAPCELL_ROW_3_111
*1108 TAP_TAPCELL_ROW_3_112
*1109 TAP_TAPCELL_ROW_40_275
*1110 TAP_TAPCELL_ROW_40_276
*1111 TAP_TAPCELL_ROW_40_277
*1112 TAP_TAPCELL_ROW_40_278
*1113 TAP_TAPCELL_ROW_40_279
*1114 TAP_TAPCELL_ROW_41_280
*1115 TAP_TAPCELL_ROW_41_281
*1116 TAP_TAPCELL_ROW_41_282
*1117 TAP_TAPCELL_ROW_41_283
*1118 TAP_TAPCELL_ROW_42_284
*1119 TAP_TAPCELL_ROW_42_285
*1120 TAP_TAPCELL_ROW_42_286
*1121 TAP_TAPCELL_ROW_42_287
*1122 TAP_TAPCELL_ROW_42_288
*1123 TAP_TAPCELL_ROW_43_289
*1124 TAP_TAPCELL_ROW_43_290
*1125 TAP_TAPCELL_ROW_43_291
*1126 TAP_TAPCELL_ROW_43_292
*1127 TAP_TAPCELL_ROW_44_293
*1128 TAP_TAPCELL_ROW_44_294
*1129 TAP_TAPCELL_ROW_44_295
*1130 TAP_TAPCELL_ROW_44_296
*1131 TAP_TAPCELL_ROW_44_297
*1132 TAP_TAPCELL_ROW_44_298
*1133 TAP_TAPCELL_ROW_44_299
*1134 TAP_TAPCELL_ROW_44_300
*1135 TAP_TAPCELL_ROW_44_301
*1136 TAP_TAPCELL_ROW_44_302
*1137 TAP_TAPCELL_ROW_4_113
*1138 TAP_TAPCELL_ROW_4_114
*1139 TAP_TAPCELL_ROW_4_115
*1140 TAP_TAPCELL_ROW_4_116
*1141 TAP_TAPCELL_ROW_4_117
*1142 TAP_TAPCELL_ROW_5_118
*1143 TAP_TAPCELL_ROW_5_119
*1144 TAP_TAPCELL_ROW_5_120
*1145 TAP_TAPCELL_ROW_5_121
*1146 TAP_TAPCELL_ROW_6_122
*1147 TAP_TAPCELL_ROW_6_123
*1148 TAP_TAPCELL_ROW_6_124
*1149 TAP_TAPCELL_ROW_6_125
*1150 TAP_TAPCELL_ROW_6_126
*1151 TAP_TAPCELL_ROW_7_127
*1152 TAP_TAPCELL_ROW_7_128
*1153 TAP_TAPCELL_ROW_7_129
*1154 TAP_TAPCELL_ROW_7_130
*1155 TAP_TAPCELL_ROW_8_131
*1156 TAP_TAPCELL_ROW_8_132
*1157 TAP_TAPCELL_ROW_8_133
*1158 TAP_TAPCELL_ROW_8_134
*1159 TAP_TAPCELL_ROW_8_135
*1160 TAP_TAPCELL_ROW_9_136
*1161 TAP_TAPCELL_ROW_9_137
*1162 TAP_TAPCELL_ROW_9_138
*1163 TAP_TAPCELL_ROW_9_139
*1164 _096_
*1165 _097_
*1166 _098_
*1167 _099_
*1168 _100_
*1169 _101_
*1170 _102_
*1171 _103_
*1172 _104_
*1173 _105_
*1174 _106_
*1175 _107_
*1176 _108_
*1177 _109_
*1178 _110_
*1179 _111_
*1180 _112_
*1181 _113_
*1182 _114_
*1183 _115_
*1184 _116_
*1185 _117_
*1186 _118_
*1187 _119_
*1188 _120_
*1189 _121_
*1190 _122_
*1191 _123_
*1192 _124_
*1193 _125_
*1194 _126_
*1195 _127_
*1196 _128_
*1197 _129_
*1198 _130_
*1199 _131_
*1200 _132_
*1201 _133_
*1202 _134_
*1203 _135_
*1204 _136_
*1205 _137_
*1206 _138_
*1207 _139_
*1208 _140_
*1209 _141_
*1210 _142_
*1211 _143_
*1212 _144_
*1213 _145_
*1214 _146_
*1215 _147_
*1216 _148_
*1217 _149_
*1218 _150_
*1219 _151_
*1220 _152_
*1221 _153_
*1222 _154_
*1223 _155_
*1224 _156_
*1225 _157_
*1226 _158_
*1227 _159_
*1228 _160_
*1229 _161_
*1230 _162_
*1231 _163_
*1232 _164_
*1233 _165_
*1234 _166_
*1235 _167_
*1236 _168_
*1237 _169_
*1238 _170_
*1239 _171_
*1240 _172_
*1241 _173_
*1242 _174_
*1243 _175_
*1244 _176_
*1245 _177_
*1246 _178_
*1247 _179_
*1248 _180_
*1249 _181_
*1250 _182_
*1251 _183_
*1252 _184_
*1253 _185_
*1254 _186_
*1255 _187_
*1256 _188_
*1257 _189_
*1258 _190_
*1259 _191_
*1260 _192_
*1261 _193_
*1262 _194_
*1263 _195_
*1264 _196_
*1265 _197_
*1266 _198_
*1267 _199_
*1268 _200_
*1269 _201_
*1270 _202_
*1271 _203_
*1272 _204_
*1273 _205_
*1274 _206_
*1275 _207_
*1276 _208_
*1277 _209_
*1278 _210_
*1279 _211_
*1280 _212_
*1281 _213_
*1282 _214_
*1283 _215_
*1284 _221_
*1285 clkbuf_0_clk
*1286 clkbuf_1_0__f_clk
*1287 clkbuf_1_1__f_clk
*1288 ita44_22
*1289 ita44_23
*1290 ita44_24
*1291 ita44_25
*1292 ita44_26
*1293 output1
*1294 output10
*1295 output11
*1296 output12
*1297 output13
*1298 output14
*1299 output15
*1300 output16
*1301 output17
*1302 output18
*1303 output19
*1304 output2
*1305 output20
*1306 output21
*1307 output3
*1308 output4
*1309 output5
*1310 output6
*1311 output7
*1312 output8
*1313 output9

*PORTS
clk I
segm[0] O
segm[10] O
segm[11] O
segm[12] O
segm[13] O
segm[1] O
segm[2] O
segm[3] O
segm[4] O
segm[5] O
segm[6] O
segm[7] O
segm[8] O
segm[9] O
sel[0] O
sel[10] O
sel[11] O
sel[1] O
sel[2] O
sel[3] O
sel[4] O
sel[5] O
sel[6] O
sel[7] O
sel[8] O
sel[9] O

*D_NET *1 0.0107737
*CONN
*P clk I
*I *1285:I I *D gf180mcu_fd_sc_mcu7t5v0__clkbuf_16
*I *182:I I *D gf180mcu_fd_sc_mcu7t5v0__antenna
*CAP
1 clk 0.00462252
2 *1285:I 7.65413e-05
3 *182:I 0
4 *1:17 0.00469907
5 *1:17 *1167:I 3.73627e-05
6 *1:17 *1174:A1 0
7 *1:17 *1174:A2 0
8 *1:17 *1175:A1 0.000641867
9 *1:17 *1179:A1 0
10 *1:17 *1180:B 0.000386717
11 *1:17 *1181:A1 4.75539e-05
12 *1:17 *1232:A1 0.000246823
13 *1:17 *89:8 1.52768e-05
*RES
1 clk *1:17 45.99 
2 *1:17 *182:I 4.5 
3 *1:17 *1285:I 5.032 
*END

*D_NET *2 0.00229812
*CONN
*P segm[0] O
*I *1293:Z O *D gf180mcu_fd_sc_mcu7t5v0__buf_8
*CAP
1 segm[0] 0.00106596
2 *1293:Z 0.00106596
3 segm[0] segm[3] 0.000166192
4 segm[0] *1302:I 0
*RES
1 *1293:Z segm[0] 20.91 
*END

*D_NET *3 0.000479643
*CONN
*P segm[10] O
*I *1304:Z O *D gf180mcu_fd_sc_mcu7t5v0__buf_8
*CAP
1 segm[10] 0.000207588
2 *1304:Z 0.000207588
3 segm[10] sel[2] 6.44669e-05
*RES
1 *1304:Z segm[10] 10.71 
*END

*D_NET *4 0.000479643
*CONN
*P segm[11] O
*I *1307:Z O *D gf180mcu_fd_sc_mcu7t5v0__buf_8
*CAP
1 segm[11] 0.000207588
2 *1307:Z 0.000207588
3 segm[11] sel[10] 6.44669e-05
*RES
1 *1307:Z segm[11] 10.71 
*END

*D_NET *5 0.00232226
*CONN
*P segm[12] O
*I *1308:Z O *D gf180mcu_fd_sc_mcu7t5v0__buf_8
*CAP
1 segm[12] 0.00109356
2 *1308:Z 0.00109356
3 segm[12] sel[1] 0
4 segm[12] sel[4] 0.00013515
*RES
1 *1308:Z segm[12] 21.366 
*END

*D_NET *6 0.00083944
*CONN
*P segm[13] O
*I *1309:Z O *D gf180mcu_fd_sc_mcu7t5v0__buf_8
*CAP
1 segm[13] 0.00041972
2 *1309:Z 0.00041972
*RES
1 *1309:Z segm[13] 11.698 
*END

*D_NET *7 0.00148312
*CONN
*P segm[1] O
*I *1288:ZN O *D gf180mcu_fd_sc_mcu7t5v0__tiel
*CAP
1 segm[1] 0.000741562
2 *1288:ZN 0.000741562
*RES
1 *1288:ZN segm[1] 9.478 
*END

*D_NET *8 0.000800654
*CONN
*P segm[2] O
*I *1289:ZN O *D gf180mcu_fd_sc_mcu7t5v0__tiel
*CAP
1 segm[2] 0.000400327
2 *1289:ZN 0.000400327
*RES
1 *1289:ZN segm[2] 11.546 
*END

*D_NET *9 0.00251102
*CONN
*P segm[3] O
*I *1310:Z O *D gf180mcu_fd_sc_mcu7t5v0__buf_8
*CAP
1 segm[3] 0.00117241
2 *1310:Z 0.00117241
3 segm[3] *1293:I 0
4 segm[0] segm[3] 0.000166192
*RES
1 *1310:Z segm[3] 21.518 
*END

*D_NET *10 0.00148312
*CONN
*P segm[4] O
*I *1290:ZN O *D gf180mcu_fd_sc_mcu7t5v0__tiel
*CAP
1 segm[4] 0.000741562
2 *1290:ZN 0.000741562
*RES
1 *1290:ZN segm[4] 9.478 
*END

*D_NET *11 0.000443703
*CONN
*P segm[5] O
*I *1291:ZN O *D gf180mcu_fd_sc_mcu7t5v0__tiel
*CAP
1 segm[5] 0.000221851
2 *1291:ZN 0.000221851
*RES
1 *1291:ZN segm[5] 10.634 
*END

*D_NET *12 0.00202763
*CONN
*P segm[6] O
*I *1311:Z O *D gf180mcu_fd_sc_mcu7t5v0__buf_8
*CAP
1 segm[6] 0.000922032