*SPEF "ieee 1481-1999"
*DESIGN "ita43"
*DATE "11:11:11 Fri 11 11, 1111"
*VENDOR "OpenRCX"
*PROGRAM "Parallel Extraction"
*VERSION "1.0"
*DESIGN_FLOW "NAME_SCOPE LOCAL" "PIN_CAP NONE"
*DIVIDER /
*DELIMITER :
*BUS_DELIMITER []
*T_UNIT 1 NS
*C_UNIT 1 PF
*R_UNIT 1 OHM
*L_UNIT 1 HENRY

*NAME_MAP
*1 clk
*2 segm[0]
*3 segm[10]
*4 segm[11]
*5 segm[12]
*6 segm[13]
*7 segm[1]
*8 segm[2]
*9 segm[3]
*10 segm[4]
*11 segm[5]
*12 segm[6]
*13 segm[7]
*14 segm[8]
*15 segm[9]
*16 sel[0]
*17 sel[10]
*18 sel[11]
*19 sel[1]
*20 sel[2]
*21 sel[3]
*22 sel[4]
*23 sel[5]
*24 sel[6]
*25 sel[7]
*26 sel[8]
*27 sel[9]
*30 _000_
*31 _001_
*32 _002_
*33 _003_
*34 _004_
*35 _005_
*36 _006_
*37 _007_
*38 _008_
*39 _009_
*40 _010_
*41 _011_
*42 _012_
*43 _013_
*44 _014_
*45 _015_
*46 _016_
*47 _017_
*48 _018_
*49 _019_
*50 _020_
*51 _021_
*52 _022_
*53 _023_
*54 _024_
*55 _025_
*56 _026_
*57 _027_
*58 _028_
*59 _029_
*60 _030_
*61 _031_
*62 _032_
*63 _033_
*64 _034_
*65 _035_
*66 _036_
*67 _037_
*68 _038_
*69 _039_
*70 _040_
*71 _041_
*72 _042_
*73 _043_
*74 _044_
*75 _045_
*76 _046_
*77 _047_
*78 _048_
*79 _049_
*80 _050_
*81 _051_
*82 _052_
*83 _053_
*84 _054_
*85 _055_
*86 _056_
*87 _057_
*88 _058_
*89 _059_
*90 _060_
*91 _061_
*92 _062_
*93 _063_
*94 _064_
*95 _065_
*96 _066_
*97 _067_
*98 _068_
*99 _069_
*100 _070_
*101 _071_
*102 _072_
*103 _073_
*104 _074_
*105 _075_
*106 _076_
*107 _077_
*108 _078_
*109 _079_
*110 _080_
*111 _081_
*112 _082_
*113 _083_
*114 _084_
*115 _085_
*116 _086_
*117 _087_
*118 _088_
*119 _089_
*120 _090_
*121 _091_
*122 _092_
*123 _093_
*124 clknet_0_clk
*125 clknet_1_0__leaf_clk
*126 clknet_1_1__leaf_clk
*127 dut43\.count\[0\]
*128 dut43\.count\[1\]
*129 dut43\.count\[2\]
*130 dut43\.count\[3\]
*131 net1
*132 net10
*133 net11
*134 net12
*135 net13
*136 net14
*137 net15
*138 net16
*139 net17
*140 net18
*141 net19
*142 net2
*143 net20
*144 net21
*145 net22
*146 net23
*147 net24
*148 net25
*149 net26
*150 net27
*151 net3
*152 net4
*153 net5
*154 net6
*155 net7
*156 net8
*157 net9
*158 ANTENNA__132__A1
*159 ANTENNA__188__CLK
*160 ANTENNA__192__CLK
*161 ANTENNA__193__CLK
*162 ANTENNA__194__CLK
*163 ANTENNA__195__CLK
*164 ANTENNA__199__CLK
*165 ANTENNA__204__CLK
*166 ANTENNA__206__CLK
*167 ANTENNA__207__CLK
*168 ANTENNA__208__CLK
*169 ANTENNA__209__CLK
*170 ANTENNA__210__CLK
*171 ANTENNA_clkbuf_0_clk_I
*172 ANTENNA_output22_I
*173 FILLER_0_0_104
*174 FILLER_0_0_138
*175 FILLER_0_0_172
*176 FILLER_0_0_2
*177 FILLER_0_0_232
*178 FILLER_0_0_236
*179 FILLER_0_0_240
*180 FILLER_0_0_274
*181 FILLER_0_0_308
*182 FILLER_0_0_342
*183 FILLER_0_0_346
*184 FILLER_0_0_348
*185 FILLER_0_0_36
*186 FILLER_0_0_70
*187 FILLER_0_10_101
*188 FILLER_0_10_107
*189 FILLER_0_10_171
*190 FILLER_0_10_177
*191 FILLER_0_10_2
*192 FILLER_0_10_241
*193 FILLER_0_10_247
*194 FILLER_0_10_311
*195 FILLER_0_10_317
*196 FILLER_0_10_34
*197 FILLER_0_10_37
*198 FILLER_0_11_136
*199 FILLER_0_11_142
*200 FILLER_0_11_2
*201 FILLER_0_11_206
*202 FILLER_0_11_212
*203 FILLER_0_11_276
*204 FILLER_0_11_282
*205 FILLER_0_11_346
*206 FILLER_0_11_348
*207 FILLER_0_11_66
*208 FILLER_0_11_72
*209 FILLER_0_12_101
*210 FILLER_0_12_107
*211 FILLER_0_12_139
*212 FILLER_0_12_147
*213 FILLER_0_12_151
*214 FILLER_0_12_158
*215 FILLER_0_12_174
*216 FILLER_0_12_177
*217 FILLER_0_12_2
*218 FILLER_0_12_241
*219 FILLER_0_12_247
*220 FILLER_0_12_311
*221 FILLER_0_12_317
*222 FILLER_0_12_34
*223 FILLER_0_12_37
*224 FILLER_0_13_136
*225 FILLER_0_13_142
*226 FILLER_0_13_144
*227 FILLER_0_13_174
*228 FILLER_0_13_2
*229 FILLER_0_13_206
*230 FILLER_0_13_212
*231 FILLER_0_13_276
*232 FILLER_0_13_282
*233 FILLER_0_13_346
*234 FILLER_0_13_348
*235 FILLER_0_13_66
*236 FILLER_0_13_72
*237 FILLER_0_14_101
*238 FILLER_0_14_107
*239 FILLER_0_14_123
*240 FILLER_0_14_127
*241 FILLER_0_14_129
*242 FILLER_0_14_171
*243 FILLER_0_14_183
*244 FILLER_0_14_2
*245 FILLER_0_14_215
*246 FILLER_0_14_231
*247 FILLER_0_14_239
*248 FILLER_0_14_243
*249 FILLER_0_14_247
*250 FILLER_0_14_311
*251 FILLER_0_14_317
*252 FILLER_0_14_34
*253 FILLER_0_14_37
*254 FILLER_0_15_136
*255 FILLER_0_15_142
*256 FILLER_0_15_146
*257 FILLER_0_15_163
*258 FILLER_0_15_165
*259 FILLER_0_15_176
*260 FILLER_0_15_180
*261 FILLER_0_15_2
*262 FILLER_0_15_212
*263 FILLER_0_15_276
*264 FILLER_0_15_282
*265 FILLER_0_15_346
*266 FILLER_0_15_348
*267 FILLER_0_15_66
*268 FILLER_0_15_72
*269 FILLER_0_16_101
*270 FILLER_0_16_107
*271 FILLER_0_16_139
*272 FILLER_0_16_155
*273 FILLER_0_16_173
*274 FILLER_0_16_177
*275 FILLER_0_16_2
*276 FILLER_0_16_222
*277 FILLER_0_16_238
*278 FILLER_0_16_243
*279 FILLER_0_16_247
*280 FILLER_0_16_311
*281 FILLER_0_16_317
*282 FILLER_0_16_34
*283 FILLER_0_16_37
*284 FILLER_0_17_104
*285 FILLER_0_17_137
*286 FILLER_0_17_139
*287 FILLER_0_17_142
*288 FILLER_0_17_146
*289 FILLER_0_17_156
*290 FILLER_0_17_164
*291 FILLER_0_17_166
*292 FILLER_0_17_172
*293 FILLER_0_17_174
*294 FILLER_0_17_189
*295 FILLER_0_17_2
*296 FILLER_0_17_205
*297 FILLER_0_17_209
*298 FILLER_0_17_218
*299 FILLER_0_17_251
*300 FILLER_0_17_267
*301 FILLER_0_17_275
*302 FILLER_0_17_279
*303 FILLER_0_17_282
*304 FILLER_0_17_314
*305 FILLER_0_17_322
*306 FILLER_0_17_66
*307 FILLER_0_17_72
*308 FILLER_0_18_107
*309 FILLER_0_18_117
*310 FILLER_0_18_121
*311 FILLER_0_18_124
*312 FILLER_0_18_128
*313 FILLER_0_18_130
*314 FILLER_0_18_139
*315 FILLER_0_18_159
*316 FILLER_0_18_172
*317 FILLER_0_18_174
*318 FILLER_0_18_185
*319 FILLER_0_18_193
*320 FILLER_0_18_197
*321 FILLER_0_18_2
*322 FILLER_0_18_205
*323 FILLER_0_18_221
*324 FILLER_0_18_238
*325 FILLER_0_18_242
*326 FILLER_0_18_244
*327 FILLER_0_18_247
*328 FILLER_0_18_311
*329 FILLER_0_18_317
*330 FILLER_0_18_321
*331 FILLER_0_18_34
*332 FILLER_0_18_37
*333 FILLER_0_18_69
*334 FILLER_0_18_73
*335 FILLER_0_18_75
*336 FILLER_0_19_130
*337 FILLER_0_19_142
*338 FILLER_0_19_155
*339 FILLER_0_19_193
*340 FILLER_0_19_209
*341 FILLER_0_19_212
*342 FILLER_0_19_245
*343 FILLER_0_19_252
*344 FILLER_0_19_268
*345 FILLER_0_19_276
*346 FILLER_0_19_28
*347 FILLER_0_19_282
*348 FILLER_0_19_314
*349 FILLER_0_19_322
*350 FILLER_0_19_60
*351 FILLER_0_19_68
*352 FILLER_0_19_72
*353 FILLER_0_19_88
*354 FILLER_0_19_92
*355 FILLER_0_1_136
*356 FILLER_0_1_142
*357 FILLER_0_1_2
*358 FILLER_0_1_206
*359 FILLER_0_1_238
*360 FILLER_0_1_270
*361 FILLER_0_1_278
*362 FILLER_0_1_282
*363 FILLER_0_1_346
*364 FILLER_0_1_348
*365 FILLER_0_1_66
*366 FILLER_0_1_72
*367 FILLER_0_20_101
*368 FILLER_0_20_107
*369 FILLER_0_20_115
*370 FILLER_0_20_119
*371 FILLER_0_20_138
*372 FILLER_0_20_149
*373 FILLER_0_20_157
*374 FILLER_0_20_159
*375 FILLER_0_20_182
*376 FILLER_0_20_190
*377 FILLER_0_20_194
*378 FILLER_0_20_2
*379 FILLER_0_20_224
*380 FILLER_0_20_237
*381 FILLER_0_20_259
*382 FILLER_0_20_291
*383 FILLER_0_20_307
*384 FILLER_0_20_317
*385 FILLER_0_20_321
*386 FILLER_0_20_34
*387 FILLER_0_20_37
*388 FILLER_0_21_104
*389 FILLER_0_21_111
*390 FILLER_0_21_127
*391 FILLER_0_21_135
*392 FILLER_0_21_139
*393 FILLER_0_21_142
*394 FILLER_0_21_168
*395 FILLER_0_21_187
*396 FILLER_0_21_195
*397 FILLER_0_21_2
*398 FILLER_0_21_208
*399 FILLER_0_21_212
*400 FILLER_0_21_219
*401 FILLER_0_21_235
*402 FILLER_0_21_243
*403 FILLER_0_21_247
*404 FILLER_0_21_254
*405 FILLER_0_21_270
*406 FILLER_0_21_278
*407 FILLER_0_21_282
*408 FILLER_0_21_314
*409 FILLER_0_21_322
*410 FILLER_0_21_66
*411 FILLER_0_21_72
*412 FILLER_0_22_101
*413 FILLER_0_22_107
*414 FILLER_0_22_111
*415 FILLER_0_22_2
*416 FILLER_0_22_240
*417 FILLER_0_22_244
*418 FILLER_0_22_247
*419 FILLER_0_22_311
*420 FILLER_0_22_317
*421 FILLER_0_22_321
*422 FILLER_0_22_34
*423 FILLER_0_22_37
*424 FILLER_0_23_129
*425 FILLER_0_23_137
*426 FILLER_0_23_139
*427 FILLER_0_23_142
*428 FILLER_0_23_144
*429 FILLER_0_23_2
*430 FILLER_0_23_228
*431 FILLER_0_23_232
*432 FILLER_0_23_238
*433 FILLER_0_23_270
*434 FILLER_0_23_278
*435 FILLER_0_23_282
*436 FILLER_0_23_314
*437 FILLER_0_23_322
*438 FILLER_0_23_66
*439 FILLER_0_23_72
*440 FILLER_0_24_101
*441 FILLER_0_24_107
*442 FILLER_0_24_111
*443 FILLER_0_24_117
*444 FILLER_0_24_121
*445 FILLER_0_24_137
*446 FILLER_0_24_145
*447 FILLER_0_24_158
*448 FILLER_0_24_170
*449 FILLER_0_24_174
*450 FILLER_0_24_177
*451 FILLER_0_24_179
*452 FILLER_0_24_186
*453 FILLER_0_24_194
*454 FILLER_0_24_196
*455 FILLER_0_24_202
*456 FILLER_0_24_210
*457 FILLER_0_24_214
*458 FILLER_0_24_247
*459 FILLER_0_24_28
*460 FILLER_0_24_311
*461 FILLER_0_24_317
*462 FILLER_0_24_32
*463 FILLER_0_24_321
*464 FILLER_0_24_34
*465 FILLER_0_24_37
*466 FILLER_0_25_123
*467 FILLER_0_25_127
*468 FILLER_0_25_135
*469 FILLER_0_25_139
*470 FILLER_0_25_142
*471 FILLER_0_25_150
*472 FILLER_0_25_203
*473 FILLER_0_25_207
*474 FILLER_0_25_209
*475 FILLER_0_25_241
*476 FILLER_0_25_273
*477 FILLER_0_25_277
*478 FILLER_0_25_279
*479 FILLER_0_25_28
*480 FILLER_0_25_282
*481 FILLER_0_25_314
*482 FILLER_0_25_322
*483 FILLER_0_25_60
*484 FILLER_0_25_68
*485 FILLER_0_25_72
*486 FILLER_0_25_88
*487 FILLER_0_26_101
*488 FILLER_0_26_107
*489 FILLER_0_26_115
*490 FILLER_0_26_130
*491 FILLER_0_26_172
*492 FILLER_0_26_174
*493 FILLER_0_26_177
*494 FILLER_0_26_181
*495 FILLER_0_26_197
*496 FILLER_0_26_205
*497 FILLER_0_26_209
*498 FILLER_0_26_219
*499 FILLER_0_26_221
*500 FILLER_0_26_227
*501 FILLER_0_26_243
*502 FILLER_0_26_247
*503 FILLER_0_26_28
*504 FILLER_0_26_311
*505 FILLER_0_26_317
*506 FILLER_0_26_32
*507 FILLER_0_26_34
*508 FILLER_0_26_37
*509 FILLER_0_27_131
*510 FILLER_0_27_135
*511 FILLER_0_27_139
*512 FILLER_0_27_142
*513 FILLER_0_27_146
*514 FILLER_0_27_178
*515 FILLER_0_27_194
*516 FILLER_0_27_202
*517 FILLER_0_27_208
*518 FILLER_0_27_212
*519 FILLER_0_27_276
*520 FILLER_0_27_28
*521 FILLER_0_27_282
*522 FILLER_0_27_346
*523 FILLER_0_27_348
*524 FILLER_0_27_60
*525 FILLER_0_27_68
*526 FILLER_0_27_72
*527 FILLER_0_27_88
*528 FILLER_0_28_101
*529 FILLER_0_28_107
*530 FILLER_0_28_150
*531 FILLER_0_28_157
*532 FILLER_0_28_165
*533 FILLER_0_28_172
*534 FILLER_0_28_174
*535 FILLER_0_28_186
*536 FILLER_0_28_194
*537 FILLER_0_28_196
*538 FILLER_0_28_226
*539 FILLER_0_28_242
*540 FILLER_0_28_244
*541 FILLER_0_28_247
*542 FILLER_0_28_28
*543 FILLER_0_28_311
*544 FILLER_0_28_317
*545 FILLER_0_28_32
*546 FILLER_0_28_34
*547 FILLER_0_28_37
*548 FILLER_0_29_104
*549 FILLER_0_29_108
*550 FILLER_0_29_110
*551 FILLER_0_29_148
*552 FILLER_0_29_158
*553 FILLER_0_29_191
*554 FILLER_0_29_2
*555 FILLER_0_29_207
*556 FILLER_0_29_209
*557 FILLER_0_29_217
*558 FILLER_0_29_249
*559 FILLER_0_29_265
*560 FILLER_0_29_273
*561 FILLER_0_29_277
*562 FILLER_0_29_279
*563 FILLER_0_29_282
*564 FILLER_0_29_346
*565 FILLER_0_29_348
*566 FILLER_0_29_66
*567 FILLER_0_29_72
*568 FILLER_0_2_101
*569 FILLER_0_2_107
*570 FILLER_0_2_171
*571 FILLER_0_2_177
*572 FILLER_0_2_2
*573 FILLER_0_2_241
*574 FILLER_0_2_247
*575 FILLER_0_2_311
*576 FILLER_0_2_317
*577 FILLER_0_2_34
*578 FILLER_0_2_37
*579 FILLER_0_30_101
*580 FILLER_0_30_107
*581 FILLER_0_30_123
*582 FILLER_0_30_125
*583 FILLER_0_30_155
*584 FILLER_0_30_159
*585 FILLER_0_30_161
*586 FILLER_0_30_167
*587 FILLER_0_30_186
*588 FILLER_0_30_190
*589 FILLER_0_30_197
*590 FILLER_0_30_199
*591 FILLER_0_30_2
*592 FILLER_0_30_205
*593 FILLER_0_30_237
*594 FILLER_0_30_247
*595 FILLER_0_30_311
*596 FILLER_0_30_317
*597 FILLER_0_30_34
*598 FILLER_0_30_37
*599 FILLER_0_31_104
*600 FILLER_0_31_120
*601 FILLER_0_31_128
*602 FILLER_0_31_134
*603 FILLER_0_31_138
*604 FILLER_0_31_146
*605 FILLER_0_31_2
*606 FILLER_0_31_212
*607 FILLER_0_31_276
*608 FILLER_0_31_282
*609 FILLER_0_31_346
*610 FILLER_0_31_348
*611 FILLER_0_31_66
*612 FILLER_0_31_72
*613 FILLER_0_32_101
*614 FILLER_0_32_107
*615 FILLER_0_32_171
*616 FILLER_0_32_182
*617 FILLER_0_32_2
*618 FILLER_0_32_214
*619 FILLER_0_32_230
*620 FILLER_0_32_238
*621 FILLER_0_32_242
*622 FILLER_0_32_244
*623 FILLER_0_32_247
*624 FILLER_0_32_311
*625 FILLER_0_32_317
*626 FILLER_0_32_34
*627 FILLER_0_32_37
*628 FILLER_0_33_136
*629 FILLER_0_33_142
*630 FILLER_0_33_2
*631 FILLER_0_33_206
*632 FILLER_0_33_212
*633 FILLER_0_33_276
*634 FILLER_0_33_282
*635 FILLER_0_33_346
*636 FILLER_0_33_348
*637 FILLER_0_33_66
*638 FILLER_0_33_72
*639 FILLER_0_34_101
*640 FILLER_0_34_107
*641 FILLER_0_34_171
*642 FILLER_0_34_177
*643 FILLER_0_34_2
*644 FILLER_0_34_241
*645 FILLER_0_34_247
*646 FILLER_0_34_311
*647 FILLER_0_34_317
*648 FILLER_0_34_34
*649 FILLER_0_34_37
*650 FILLER_0_35_136
*651 FILLER_0_35_142
*652 FILLER_0_35_2
*653 FILLER_0_35_206
*654 FILLER_0_35_212
*655 FILLER_0_35_276
*656 FILLER_0_35_282
*657 FILLER_0_35_346
*658 FILLER_0_35_348
*659 FILLER_0_35_66
*660 FILLER_0_35_72
*661 FILLER_0_36_101
*662 FILLER_0_36_107
*663 FILLER_0_36_171
*664 FILLER_0_36_177
*665 FILLER_0_36_2
*666 FILLER_0_36_241
*667 FILLER_0_36_247
*668 FILLER_0_36_311
*669 FILLER_0_36_317
*670 FILLER_0_36_34
*671 FILLER_0_36_37
*672 FILLER_0_37_136
*673 FILLER_0_37_142
*674 FILLER_0_37_2
*675 FILLER_0_37_206
*676 FILLER_0_37_212
*677 FILLER_0_37_276
*678 FILLER_0_37_282
*679 FILLER_0_37_346
*680 FILLER_0_37_348
*681 FILLER_0_37_66
*682 FILLER_0_37_72
*683 FILLER_0_38_101
*684 FILLER_0_38_107
*685 FILLER_0_38_171
*686 FILLER_0_38_177
*687 FILLER_0_38_2
*688 FILLER_0_38_241
*689 FILLER_0_38_247
*690 FILLER_0_38_311
*691 FILLER_0_38_317
*692 FILLER_0_38_34
*693 FILLER_0_38_37
*694 FILLER_0_39_136
*695 FILLER_0_39_142
*696 FILLER_0_39_2
*697 FILLER_0_39_206
*698 FILLER_0_39_212
*699 FILLER_0_39_276
*700 FILLER_0_39_282
*701 FILLER_0_39_346
*702 FILLER_0_39_348
*703 FILLER_0_39_66
*704 FILLER_0_39_72
*705 FILLER_0_3_136
*706 FILLER_0_3_142
*707 FILLER_0_3_2
*708 FILLER_0_3_206
*709 FILLER_0_3_212
*710 FILLER_0_3_276
*711 FILLER_0_3_282
*712 FILLER_0_3_346
*713 FILLER_0_3_348
*714 FILLER_0_3_66
*715 FILLER_0_3_72
*716 FILLER_0_40_101
*717 FILLER_0_40_107
*718 FILLER_0_40_171
*719 FILLER_0_40_177
*720 FILLER_0_40_2
*721 FILLER_0_40_241
*722 FILLER_0_40_247
*723 FILLER_0_40_311
*724 FILLER_0_40_317
*725 FILLER_0_40_34
*726 FILLER_0_40_37
*727 FILLER_0_41_136
*728 FILLER_0_41_142
*729 FILLER_0_41_2
*730 FILLER_0_41_206
*731 FILLER_0_41_212
*732 FILLER_0_41_276
*733 FILLER_0_41_282
*734 FILLER_0_41_346
*735 FILLER_0_41_348
*736 FILLER_0_41_66
*737 FILLER_0_41_72
*738 FILLER_0_42_101
*739 FILLER_0_42_107
*740 FILLER_0_42_165
*741 FILLER_0_42_173
*742 FILLER_0_42_2
*743 FILLER_0_42_203
*744 FILLER_0_42_207
*745 FILLER_0_42_239
*746 FILLER_0_42_243
*747 FILLER_0_42_247
*748 FILLER_0_42_311
*749 FILLER_0_42_317
*750 FILLER_0_42_34
*751 FILLER_0_42_37
*752 FILLER_0_43_136
*753 FILLER_0_43_142
*754 FILLER_0_43_150
*755 FILLER_0_43_154
*756 FILLER_0_43_2
*757 FILLER_0_43_207
*758 FILLER_0_43_209
*759 FILLER_0_43_238
*760 FILLER_0_43_270
*761 FILLER_0_43_278
*762 FILLER_0_43_282
*763 FILLER_0_43_346
*764 FILLER_0_43_348
*765 FILLER_0_43_66
*766 FILLER_0_43_72
*767 FILLER_0_44_104
*768 FILLER_0_44_138
*769 FILLER_0_44_142
*770 FILLER_0_44_172
*771 FILLER_0_44_176
*772 FILLER_0_44_2
*773 FILLER_0_44_232
*774 FILLER_0_44_236
*775 FILLER_0_44_266
*776 FILLER_0_44_270
*777 FILLER_0_44_274
*778 FILLER_0_44_308
*779 FILLER_0_44_342
*780 FILLER_0_44_346
*781 FILLER_0_44_348
*782 FILLER_0_44_36
*783 FILLER_0_44_70
*784 FILLER_0_4_101
*785 FILLER_0_4_107
*786 FILLER_0_4_171
*787 FILLER_0_4_177
*788 FILLER_0_4_2
*789 FILLER_0_4_241
*790 FILLER_0_4_247
*791 FILLER_0_4_311
*792 FILLER_0_4_317
*793 FILLER_0_4_34
*794 FILLER_0_4_37
*795 FILLER_0_5_136
*796 FILLER_0_5_142
*797 FILLER_0_5_2
*798 FILLER_0_5_206
*799 FILLER_0_5_212
*800 FILLER_0_5_276
*801 FILLER_0_5_282
*802 FILLER_0_5_346
*803 FILLER_0_5_348
*804 FILLER_0_5_66
*805 FILLER_0_5_72
*806 FILLER_0_6_101
*807 FILLER_0_6_107
*808 FILLER_0_6_171
*809 FILLER_0_6_177
*810 FILLER_0_6_2
*811 FILLER_0_6_241
*812 FILLER_0_6_247
*813 FILLER_0_6_311
*814 FILLER_0_6_317
*815 FILLER_0_6_34
*816 FILLER_0_6_37
*817 FILLER_0_7_136
*818 FILLER_0_7_142
*819 FILLER_0_7_2
*820 FILLER_0_7_206
*821 FILLER_0_7_212
*822 FILLER_0_7_276
*823 FILLER_0_7_282
*824 FILLER_0_7_346
*825 FILLER_0_7_348
*826 FILLER_0_7_66
*827 FILLER_0_7_72
*828 FILLER_0_8_101
*829 FILLER_0_8_107
*830 FILLER_0_8_171
*831 FILLER_0_8_177
*832 FILLER_0_8_2
*833 FILLER_0_8_241
*834 FILLER_0_8_247
*835 FILLER_0_8_311
*836 FILLER_0_8_317
*837 FILLER_0_8_34
*838 FILLER_0_8_37
*839 FILLER_0_9_136
*840 FILLER_0_9_142
*841 FILLER_0_9_2
*842 FILLER_0_9_206
*843 FILLER_0_9_212
*844 FILLER_0_9_276
*845 FILLER_0_9_282
*846 FILLER_0_9_346
*847 FILLER_0_9_348
*848 FILLER_0_9_66
*849 FILLER_0_9_72
*850 PHY_EDGE_ROW_0_Left_45
*851 PHY_EDGE_ROW_0_Right_0
*852 PHY_EDGE_ROW_10_Left_55
*853 PHY_EDGE_ROW_10_Right_10
*854 PHY_EDGE_ROW_11_Left_56
*855 PHY_EDGE_ROW_11_Right_11
*856 PHY_EDGE_ROW_12_Left_57
*857 PHY_EDGE_ROW_12_Right_12
*858 PHY_EDGE_ROW_13_Left_58
*859 PHY_EDGE_ROW_13_Right_13
*860 PHY_EDGE_ROW_14_Left_59
*861 PHY_EDGE_ROW_14_Right_14
*862 PHY_EDGE_ROW_15_Left_60
*863 PHY_EDGE_ROW_15_Right_15
*864 PHY_EDGE_ROW_16_Left_61
*865 PHY_EDGE_ROW_16_Right_16
*866 PHY_EDGE_ROW_17_Left_62
*867 PHY_EDGE_ROW_17_Right_17
*868 PHY_EDGE_ROW_18_Left_63
*869 PHY_EDGE_ROW_18_Right_18
*870 PHY_EDGE_ROW_19_Left_64
*871 PHY_EDGE_ROW_19_Right_19
*872 PHY_EDGE_ROW_1_Left_46
*873 PHY_EDGE_ROW_1_Right_1
*874 PHY_EDGE_ROW_20_Left_65
*875 PHY_EDGE_ROW_20_Right_20
*876 PHY_EDGE_ROW_21_Left_66
*877 PHY_EDGE_ROW_21_Right_21
*878 PHY_EDGE_ROW_22_Left_67
*879 PHY_EDGE_ROW_22_Right_22
*880 PHY_EDGE_ROW_23_Left_68
*881 PHY_EDGE_ROW_23_Right_23
*882 PHY_EDGE_ROW_24_Left_69
*883 PHY_EDGE_ROW_24_Right_24
*884 PHY_EDGE_ROW_25_Left_70
*885 PHY_EDGE_ROW_25_Right_25
*886 PHY_EDGE_ROW_26_Left_71
*887 PHY_EDGE_ROW_26_Right_26
*888 PHY_EDGE_ROW_27_Left_72
*889 PHY_EDGE_ROW_27_Right_27
*890 PHY_EDGE_ROW_28_Left_73
*891 PHY_EDGE_ROW_28_Right_28
*892 PHY_EDGE_ROW_29_Left_74
*893 PHY_EDGE_ROW_29_Right_29
*894 PHY_EDGE_ROW_2_Left_47
*895 PHY_EDGE_ROW_2_Right_2
*896 PHY_EDGE_ROW_30_Left_75
*897 PHY_EDGE_ROW_30_Right_30
*898 PHY_EDGE_ROW_31_Left_76
*899 PHY_EDGE_ROW_31_Right_31
*900 PHY_EDGE_ROW_32_Left_77
*901 PHY_EDGE_ROW_32_Right_32
*902 PHY_EDGE_ROW_33_Left_78
*903 PHY_EDGE_ROW_33_Right_33
*904 PHY_EDGE_ROW_34_Left_79
*905 PHY_EDGE_ROW_34_Right_34
*906 PHY_EDGE_ROW_35_Left_80
*907 PHY_EDGE_ROW_35_Right_35
*908 PHY_EDGE_ROW_36_Left_81
*909 PHY_EDGE_ROW_36_Right_36
*910 PHY_EDGE_ROW_37_Left_82
*911 PHY_EDGE_ROW_37_Right_37
*912 PHY_EDGE_ROW_38_Left_83
*913 PHY_EDGE_ROW_38_Right_38
*914 PHY_EDGE_ROW_39_Left_84
*915 PHY_EDGE_ROW_39_Right_39
*916 PHY_EDGE_ROW_3_Left_48
*917 PHY_EDGE_ROW_3_Right_3
*918 PHY_EDGE_ROW_40_Left_85
*919 PHY_EDGE_ROW_40_Right_40
*920 PHY_EDGE_ROW_41_Left_86
*921 PHY_EDGE_ROW_41_Right_41
*922 PHY_EDGE_ROW_42_Left_87
*923 PHY_EDGE_ROW_42_Right_42
*924 PHY_EDGE_ROW_43_Left_88
*925 PHY_EDGE_ROW_43_Right_43
*926 PHY_EDGE_ROW_44_Left_89
*927 PHY_EDGE_ROW_44_Right_44
*928 PHY_EDGE_ROW_4_Left_49
*929 PHY_EDGE_ROW_4_Right_4
*930 PHY_EDGE_ROW_5_Left_50
*931 PHY_EDGE_ROW_5_Right_5
*932 PHY_EDGE_ROW_6_Left_51
*933 PHY_EDGE_ROW_6_Right_6
*934 PHY_EDGE_ROW_7_Left_52
*935 PHY_EDGE_ROW_7_Right_7
*936 PHY_EDGE_ROW_8_Left_53
*937 PHY_EDGE_ROW_8_Right_8
*938 PHY_EDGE_ROW_9_Left_54
*939 PHY_EDGE_ROW_9_Right_9
*940 TAP_TAPCELL_ROW_0_90
*941 TAP_TAPCELL_ROW_0_91
*942 TAP_TAPCELL_ROW_0_92
*943 TAP_TAPCELL_ROW_0_93
*944 TAP_TAPCELL_ROW_0_94
*945 TAP_TAPCELL_ROW_0_95
*946 TAP_TAPCELL_ROW_0_96
*947 TAP_TAPCELL_ROW_0_97
*948 TAP_TAPCELL_ROW_0_98
*949 TAP_TAPCELL_ROW_0_99
*950 TAP_TAPCELL_ROW_10_140
*951 TAP_TAPCELL_ROW_10_141
*952 TAP_TAPCELL_ROW_10_142
*953 TAP_TAPCELL_ROW_10_143
*954 TAP_TAPCELL_ROW_10_144
*955 TAP_TAPCELL_ROW_11_145
*956 TAP_TAPCELL_ROW_11_146
*957 TAP_TAPCELL_ROW_11_147
*958 TAP_TAPCELL_ROW_11_148
*959 TAP_TAPCELL_ROW_12_149
*960 TAP_TAPCELL_ROW_12_150
*961 TAP_TAPCELL_ROW_12_151
*962 TAP_TAPCELL_ROW_12_152
*963 TAP_TAPCELL_ROW_12_153
*964 TAP_TAPCELL_ROW_13_154
*965 TAP_TAPCELL_ROW_13_155
*966 TAP_TAPCELL_ROW_13_156
*967 TAP_TAPCELL_ROW_13_157
*968 TAP_TAPCELL_ROW_14_158
*969 TAP_TAPCELL_ROW_14_159
*970 TAP_TAPCELL_ROW_14_160
*971 TAP_TAPCELL_ROW_14_161
*972 TAP_TAPCELL_ROW_14_162
*973 TAP_TAPCELL_ROW_15_163
*974 TAP_TAPCELL_ROW_15_164
*975 TAP_TAPCELL_ROW_15_165
*976 TAP_TAPCELL_ROW_15_166
*977 TAP_TAPCELL_ROW_16_167
*978 TAP_TAPCELL_ROW_16_168
*979 TAP_TAPCELL_ROW_16_169
*980 TAP_TAPCELL_ROW_16_170
*981 TAP_TAPCELL_ROW_16_171
*982 TAP_TAPCELL_ROW_17_172
*983 TAP_TAPCELL_ROW_17_173
*984 TAP_TAPCELL_ROW_17_174
*985 TAP_TAPCELL_ROW_17_175
*986 TAP_TAPCELL_ROW_18_176
*987 TAP_TAPCELL_ROW_18_177
*988 TAP_TAPCELL_ROW_18_178
*989 TAP_TAPCELL_ROW_18_179
*990 TAP_TAPCELL_ROW_18_180
*991 TAP_TAPCELL_ROW_19_181
*992 TAP_TAPCELL_ROW_19_182
*993 TAP_TAPCELL_ROW_19_183
*994 TAP_TAPCELL_ROW_19_184
*995 TAP_TAPCELL_ROW_1_100
*996 TAP_TAPCELL_ROW_1_101
*997 TAP_TAPCELL_ROW_1_102
*998 TAP_TAPCELL_ROW_1_103
*999 TAP_TAPCELL_ROW_20_185
*1000 TAP_TAPCELL_ROW_20_186
*1001 TAP_TAPCELL_ROW_20_187
*1002 TAP_TAPCELL_ROW_20_188
*1003 TAP_TAPCELL_ROW_20_189
*1004 TAP_TAPCELL_ROW_21_190
*1005 TAP_TAPCELL_ROW_21_191
*1006 TAP_TAPCELL_ROW_21_192
*1007 TAP_TAPCELL_ROW_21_193
*1008 TAP_TAPCELL_ROW_22_194
*1009 TAP_TAPCELL_ROW_22_195
*1010 TAP_TAPCELL_ROW_22_196
*1011 TAP_TAPCELL_ROW_22_197
*1012 TAP_TAPCELL_ROW_22_198
*1013 TAP_TAPCELL_ROW_23_199
*1014 TAP_TAPCELL_ROW_23_200
*1015 TAP_TAPCELL_ROW_23_201
*1016 TAP_TAPCELL_ROW_23_202
*1017 TAP_TAPCELL_ROW_24_203
*1018 TAP_TAPCELL_ROW_24_204
*1019 TAP_TAPCELL_ROW_24_205
*1020 TAP_TAPCELL_ROW_24_206
*1021 TAP_TAPCELL_ROW_24_207
*1022 TAP_TAPCELL_ROW_25_208
*1023 TAP_TAPCELL_ROW_25_209
*1024 TAP_TAPCELL_ROW_25_210
*1025 TAP_TAPCELL_ROW_25_211
*1026 TAP_TAPCELL_ROW_26_212
*1027 TAP_TAPCELL_ROW_26_213
*1028 TAP_TAPCELL_ROW_26_214
*1029 TAP_TAPCELL_ROW_26_215
*1030 TAP_TAPCELL_ROW_26_216
*1031 TAP_TAPCELL_ROW_27_217
*1032 TAP_TAPCELL_ROW_27_218
*1033 TAP_TAPCELL_ROW_27_219
*1034 TAP_TAPCELL_ROW_27_220
*1035 TAP_TAPCELL_ROW_28_221
*1036 TAP_TAPCELL_ROW_28_222
*1037 TAP_TAPCELL_ROW_28_223
*1038 TAP_TAPCELL_ROW_28_224
*1039 TAP_TAPCELL_ROW_28_225
*1040 TAP_TAPCELL_ROW_29_226
*1041 TAP_TAPCELL_ROW_29_227
*1042 TAP_TAPCELL_ROW_29_228
*1043 TAP_TAPCELL_ROW_29_229
*1044 TAP_TAPCELL_ROW_2_104
*1045 TAP_TAPCELL_ROW_2_105
*1046 TAP_TAPCELL_ROW_2_106
*1047 TAP_TAPCELL_ROW_2_107
*1048 TAP_TAPCELL_ROW_2_108
*1049 TAP_TAPCELL_ROW_30_230
*1050 TAP_TAPCELL_ROW_30_231
*1051 TAP_TAPCELL_ROW_30_232
*1052 TAP_TAPCELL_ROW_30_233
*1053 TAP_TAPCELL_ROW_30_234
*1054 TAP_TAPCELL_ROW_31_235
*1055 TAP_TAPCELL_ROW_31_236
*1056 TAP_TAPCELL_ROW_31_237
*1057 TAP_TAPCELL_ROW_31_238
*1058 TAP_TAPCELL_ROW_32_239
*1059 TAP_TAPCELL_ROW_32_240
*1060 TAP_TAPCELL_ROW_32_241
*1061 TAP_TAPCELL_ROW_32_242
*1062 TAP_TAPCELL_ROW_32_243
*1063 TAP_TAPCELL_ROW_33_244
*1064 TAP_TAPCELL_ROW_33_245
*1065 TAP_TAPCELL_ROW_33_246
*1066 TAP_TAPCELL_ROW_33_247
*1067 TAP_TAPCELL_ROW_34_248
*1068 TAP_TAPCELL_ROW_34_249
*1069 TAP_TAPCELL_ROW_34_250
*1070 TAP_TAPCELL_ROW_34_251
*1071 TAP_TAPCELL_ROW_34_252
*1072 TAP_TAPCELL_ROW_35_253
*1073 TAP_TAPCELL_ROW_35_254
*1074 TAP_TAPCELL_ROW_35_255
*1075 TAP_TAPCELL_ROW_35_256
*1076 TAP_TAPCELL_ROW_36_257
*1077 TAP_TAPCELL_ROW_36_258
*1078 TAP_TAPCELL_ROW_36_259
*1079 TAP_TAPCELL_ROW_36_260
*1080 TAP_TAPCELL_ROW_36_261
*1081 TAP_TAPCELL_ROW_37_262
*1082 TAP_TAPCELL_ROW_37_263
*1083 TAP_TAPCELL_ROW_37_264
*1084 TAP_TAPCELL_ROW_37_265
*1085 TAP_TAPCELL_ROW_38_266
*1086 TAP_TAPCELL_ROW_38_267
*1087 TAP_TAPCELL_ROW_38_268
*1088 TAP_TAPCELL_ROW_38_269
*1089 TAP_TAPCELL_ROW_38_270
*1090 TAP_TAPCELL_ROW_39_271
*1091 TAP_TAPCELL_ROW_39_272
*1092 TAP_TAPCELL_ROW_39_273
*1093 TAP_TAPCELL_ROW_39_274
*1094 TAP_TAPCELL_ROW_3_109
*1095 TAP_TAPCELL_ROW_3_110
*1096 TAP_TAPCELL_ROW_3_111
*1097 TAP_TAPCELL_ROW_3_112
*1098 TAP_TAPCELL_ROW_40_275
*1099 TAP_TAPCELL_ROW_40_276
*1100 TAP_TAPCELL_ROW_40_277
*1101 TAP_TAPCELL_ROW_40_278
*1102 TAP_TAPCELL_ROW_40_279
*1103 TAP_TAPCELL_ROW_41_280
*1104 TAP_TAPCELL_ROW_41_281
*1105 TAP_TAPCELL_ROW_41_282
*1106 TAP_TAPCELL_ROW_41_283
*1107 TAP_TAPCELL_ROW_42_284
*1108 TAP_TAPCELL_ROW_42_285
*1109 TAP_TAPCELL_ROW_42_286
*1110 TAP_TAPCELL_ROW_42_287
*1111 TAP_TAPCELL_ROW_42_288
*1112 TAP_TAPCELL_ROW_43_289
*1113 TAP_TAPCELL_ROW_43_290
*1114 TAP_TAPCELL_ROW_43_291
*1115 TAP_TAPCELL_ROW_43_292
*1116 TAP_TAPCELL_ROW_44_293
*1117 TAP_TAPCELL_ROW_44_294
*1118 TAP_TAPCELL_ROW_44_295
*1119 TAP_TAPCELL_ROW_44_296
*1120 TAP_TAPCELL_ROW_44_297
*1121 TAP_TAPCELL_ROW_44_298
*1122 TAP_TAPCELL_ROW_44_299
*1123 TAP_TAPCELL_ROW_44_300
*1124 TAP_TAPCELL_ROW_44_301
*1125 TAP_TAPCELL_ROW_44_302
*1126 TAP_TAPCELL_ROW_4_113
*1127 TAP_TAPCELL_ROW_4_114
*1128 TAP_TAPCELL_ROW_4_115
*1129 TAP_TAPCELL_ROW_4_116
*1130 TAP_TAPCELL_ROW_4_117
*1131 TAP_TAPCELL_ROW_5_118
*1132 TAP_TAPCELL_ROW_5_119
*1133 TAP_TAPCELL_ROW_5_120
*1134 TAP_TAPCELL_ROW_5_121
*1135 TAP_TAPCELL_ROW_6_122
*1136 TAP_TAPCELL_ROW_6_123
*1137 TAP_TAPCELL_ROW_6_124
*1138 TAP_TAPCELL_ROW_6_125
*1139 TAP_TAPCELL_ROW_6_126
*1140 TAP_TAPCELL_ROW_7_127
*1141 TAP_TAPCELL_ROW_7_128
*1142 TAP_TAPCELL_ROW_7_129
*1143 TAP_TAPCELL_ROW_7_130
*1144 TAP_TAPCELL_ROW_8_131
*1145 TAP_TAPCELL_ROW_8_132
*1146 TAP_TAPCELL_ROW_8_133
*1147 TAP_TAPCELL_ROW_8_134
*1148 TAP_TAPCELL_ROW_8_135
*1149 TAP_TAPCELL_ROW_9_136
*1150 TAP_TAPCELL_ROW_9_137
*1151 TAP_TAPCELL_ROW_9_138
*1152 TAP_TAPCELL_ROW_9_139
*1153 _094_
*1154 _095_
*1155 _096_
*1156 _097_
*1157 _098_
*1158 _099_
*1159 _100_
*1160 _101_
*1161 _102_
*1162 _103_
*1163 _104_
*1164 _105_
*1165 _106_
*1166 _107_
*1167 _108_
*1168 _109_
*1169 _110_
*1170 _111_
*1171 _112_
*1172 _113_
*1173 _114_
*1174 _115_
*1175 _116_
*1176 _117_
*1177 _118_
*1178 _119_
*1179 _120_
*1180 _121_
*1181 _122_
*1182 _123_
*1183 _124_
*1184 _125_
*1185 _126_
*1186 _127_
*1187 _128_
*1188 _129_
*1189 _130_
*1190 _131_
*1191 _132_
*1192 _133_
*1193 _134_
*1194 _135_
*1195 _136_
*1196 _137_
*1197 _138_
*1198 _139_
*1199 _140_
*1200 _141_
*1201 _142_
*1202 _143_
*1203 _144_
*1204 _145_
*1205 _146_
*1206 _147_
*1207 _148_
*1208 _149_
*1209 _150_
*1210 _151_
*1211 _152_
*1212 _153_
*1213 _154_
*1214 _155_
*1215 _156_
*1216 _157_
*1217 _158_
*1218 _159_
*1219 _160_
*1220 _161_
*1221 _162_
*1222 _163_
*1223 _164_
*1224 _165_
*1225 _166_
*1226 _167_
*1227 _168_
*1228 _169_
*1229 _170_
*1230 _171_
*1231 _172_
*1232 _173_
*1233 _174_
*1234 _175_
*1235 _176_
*1236 _177_
*1237 _178_
*1238 _179_
*1239 _180_
*1240 _181_
*1241 _182_
*1242 _183_
*1243 _184_
*1244 _185_
*1245 _186_
*1246 _187_
*1247 _188_
*1248 _189_
*1249 _190_
*1250 _191_
*1251 _192_
*1252 _193_
*1253 _194_
*1254 _195_
*1255 _196_
*1256 _197_
*1257 _198_
*1258 _199_
*1259 _200_
*1260 _201_
*1261 _202_
*1262 _203_
*1263 _204_
*1264 _205_
*1265 _206_
*1266 _207_
*1267 _208_
*1268 _209_
*1269 _210_
*1270 _211_
*1271 _212_
*1272 _213_
*1273 _214_
*1274 _215_
*1275 _216_
*1276 _217_
*1277 clkbuf_0_clk
*1278 clkbuf_1_0__f_clk
*1279 clkbuf_1_1__f_clk
*1280 fanout27
*1281 output1
*1282 output10
*1283 output11
*1284 output12
*1285 output13
*1286 output14
*1287 output15
*1288 output16
*1289 output17
*1290 output18
*1291 output19
*1292 output2
*1293 output20
*1294 output21
*1295 output22
*1296 output23
*1297 output24
*1298 output25
*1299 output26
*1300 output3
*1301 output4
*1302 output5
*1303 output6
*1304 output7
*1305 output8
*1306 output9

*PORTS
clk I
segm[0] O
segm[10] O
segm[11] O
segm[12] O
segm[13] O
segm[1] O
segm[2] O
segm[3] O
segm[4] O
segm[5] O
segm[6] O
segm[7] O
segm[8] O
segm[9] O
sel[0] O
sel[10] O
sel[11] O
sel[1] O
sel[2] O
sel[3] O
sel[4] O
sel[5] O
sel[6] O
sel[7] O
sel[8] O
sel[9] O

*D_NET *1 0.0197405
*CONN
*P clk I
*I *1277:I I *D gf180mcu_fd_sc_mcu7t5v0__clkbuf_16
*I *171:I I *D gf180mcu_fd_sc_mcu7t5v0__antenna
*CAP
1 clk 0.00232266
2 *1277:I 0.000275225
3 *171:I 0
4 *1:15 0.00192587
5 *1:11 0.00397331
6 *1277:I *1241:A2 0.00128411
7 *1277:I *83:24 0.000427051
8 *1:11 *1305:I 0.000591484
9 *1:15 *1200:A1 2.51389e-05
10 *1:15 *1240:A1 0.00205281
11 *1:15 *1241:A2 0.000864463
12 *1:15 *1267:D 0.000746454
13 *1:15 *1305:I 0.00524209
14 *1:15 *118:21 9.77992e-06
15 *1:15 *125:12 0
16 *1:15 *125:162 0
*RES
1 clk *1:11 27.044 
2 *1:11 *1:15 25.376 
3 *1:15 *171:I 9 
4 *1:15 *1277:I 12.432 
*END

*D_NET *2 0.000514696
*CONN
*P segm[0] O
*I *1281:Z O *D gf180mcu_fd_sc_mcu7t5v0__buf_8
*CAP
1 segm[0] 0.000221342
2 *1281:Z 0.000221342
3 segm[0] segm[7] 7.20128e-05
*RES
1 *1281:Z segm[0] 11.34 
*END

*D_NET *3 0.00347916
*CONN
*P segm[10] O
*I *1292:Z O *D gf180mcu_fd_sc_mcu7t5v0__buf_8
*CAP
1 segm[10] 0.00163772
2 *1292:Z 0.00163772
3 segm[10] sel[7] 0
4 segm[10] *1292:I 0.000203721
*RES
1 *1292:Z segm[10] 26.136 
*END

*D_NET *4 0.000514696
*CONN
*P segm[11] O
*I *1300:Z O *D gf180mcu_fd_sc_mcu7t5v0__buf_8
*CAP
1 segm[11] 0.000221342
2 *1300:Z 0.000221342
3 segm[11] segm[12] 7.20128e-05
*RES
1 *1300:Z segm[11] 11.34 
*END

*D_NET *5 0.000841581
*CONN
*P segm[12] O
*I *1301:Z O *D gf180mcu_fd_sc_mcu7t5v0__buf_8
*CAP
1 segm[12] 0.000354456
2 *1301:Z 0.000354456
3 segm[12] segm[8] 6.0656e-05
4 segm[11] segm[12] 7.20128e-05
*RES
1 *1301:Z segm[12] 12.276 
*END

*D_NET *6 0.00103202
*CONN
*P segm[13] O
*I *1302:Z O *D gf180mcu_fd_sc_mcu7t5v0__buf_8
*CAP
1 segm[13] 0.000464215
2 *1302:Z 0.000464215
3 segm[13] segm[9] 0.00010359
*RES
1 *1302:Z segm[13] 12.692 
*END

*D_NET *7 0.00107077
*CONN
*P segm[1] O
*I *1303:Z O *D gf180mcu_fd_sc_mcu7t5v0__buf_8
*CAP
1 segm[1] 0.000500888
2 *1303:Z 0.000500888
3 segm[1] sel[2] 6.8994e-05
*RES
1 *1303:Z segm[1] 13.108 
*END

*D_NET *8 0.00267297
*CONN
*P segm[2] O
*I *1304:Z O *D gf180mcu_fd_sc_mcu7t5v0__buf_8
*CAP
1 segm[2] 0.00112665
2 *1304:Z 0.00112665
3 segm[2] sel[10] 0.000338675
4 segm[2] *1288:I 8.10026e-05
*RES
1 *1304:Z segm[2] 23.64 
*END

*D_NET *9 0.00106519
*CONN
*P segm[3] O
*I *1305:Z O *D gf180mcu_fd_sc_mcu7t5v0__buf_8
*CAP
1 segm[3] 0.000532593
2 *1305:Z 0.000532593
*RES
1 *1305:Z segm[3] 13.108 
*END

*D_NET *10 0.00288175
*CONN
*P segm[4] O
*I *1306:Z O *D gf180mcu_fd_sc_mcu7t5v0__buf_8
*CAP
1 segm[4] 0.0013694
2 *1306:Z 0.0013694
3 segm[4] sel[3] 0.000142953
4 segm[4] *1293:I 0
*RES
1 *1306:Z segm[4] 24.472 
*END

*D_NET *11 0.000698543
*CONN
*P segm[5] O
*I *1282:Z O *D gf180mcu_fd_sc_mcu7t5v0__buf_8
*CAP
1 segm[5] 0.000314775
2 *1282:Z 0.000314775
3 segm[5] sel[1] 6.8994e-05
*RES
1 *1282:Z segm[5] 11.86 
*END

*D_NET *12 0.000758401
*CONN
*P segm[6] O
*I *1283:Z O *D gf180mcu_fd_sc_mcu7t5v0__buf_8