*SPEF "ieee 1481-1999"
*DESIGN "ita42"
*DATE "11:11:11 Fri 11 11, 1111"
*VENDOR "OpenRCX"
*PROGRAM "Parallel Extraction"
*VERSION "1.0"
*DESIGN_FLOW "NAME_SCOPE LOCAL" "PIN_CAP NONE"
*DIVIDER /
*DELIMITER :
*BUS_DELIMITER []
*T_UNIT 1 NS
*C_UNIT 1 PF
*R_UNIT 1 OHM
*L_UNIT 1 HENRY

*NAME_MAP
*1 clk
*2 net25
*3 segm[10]
*4 segm[11]
*5 segm[12]
*6 segm[13]
*7 segm[1]
*8 segm[2]
*9 segm[3]
*10 net26
*11 segm[5]
*12 segm[6]
*13 segm[7]
*14 segm[8]
*15 segm[9]
*16 sel[0]
*17 sel[10]
*18 sel[11]
*19 sel[1]
*20 sel[2]
*21 sel[3]
*22 sel[4]
*23 sel[5]
*24 sel[6]
*25 sel[7]
*26 sel[8]
*27 sel[9]
*30 _000_
*31 _001_
*32 _002_
*33 _003_
*34 _004_
*35 _005_
*36 _006_
*37 _007_
*38 _008_
*39 _009_
*40 _010_
*41 _011_
*42 _012_
*43 _013_
*44 _014_
*45 _015_
*46 _016_
*47 _017_
*48 _018_
*49 _019_
*50 _020_
*51 _021_
*52 _022_
*53 _023_
*54 _024_
*55 _025_
*56 _026_
*57 _027_
*58 _028_
*59 _029_
*60 _030_
*61 _031_
*62 _032_
*63 _033_
*64 _034_
*65 _035_
*66 _036_
*67 _037_
*68 _038_
*69 _039_
*70 _040_
*71 _041_
*72 _042_
*73 _043_
*74 _044_
*75 _045_
*76 _046_
*77 _047_
*78 _048_
*79 _049_
*80 _050_
*81 _051_
*82 _052_
*83 _053_
*84 _054_
*85 _055_
*86 _056_
*87 _057_
*88 _058_
*89 _059_
*90 _060_
*91 _061_
*92 _062_
*93 _063_
*94 _064_
*95 _065_
*96 _066_
*97 _067_
*98 _068_
*99 _069_
*100 _070_
*101 _071_
*102 _072_
*103 _073_
*104 _074_
*105 _075_
*106 _076_
*107 _077_
*108 _078_
*109 _079_
*110 _080_
*111 _081_
*112 _082_
*113 _083_
*114 _084_
*115 _085_
*116 _086_
*117 _087_
*118 _088_
*119 _089_
*120 _090_
*121 _091_
*122 _092_
*123 _093_
*124 _094_
*125 _095_
*126 _096_
*127 _097_
*128 _098_
*129 _099_
*130 _100_
*131 _101_
*132 _102_
*133 _103_
*134 _104_
*135 _105_
*136 _106_
*137 clknet_0_clk
*138 clknet_1_0__leaf_clk
*139 clknet_1_1__leaf_clk
*140 dut42\.count\[0\]
*141 dut42\.count\[1\]
*142 dut42\.count\[2\]
*143 dut42\.count\[3\]
*144 net1
*145 net10
*146 net11
*147 net12
*148 net13
*149 net14
*150 net15
*151 net16
*152 net17
*153 net18
*154 net19
*155 net2
*156 net20
*157 net21
*158 net22
*159 net23
*160 net24
*161 net3
*162 net4
*163 net5
*164 net6
*165 net7
*166 net8
*167 net9
*168 ANTENNA__214__CLK
*169 ANTENNA__215__CLK
*170 ANTENNA__216__CLK
*171 ANTENNA__217__CLK
*172 ANTENNA__218__CLK
*173 ANTENNA__219__CLK
*174 ANTENNA__220__CLK
*175 ANTENNA__221__CLK
*176 ANTENNA__222__CLK
*177 ANTENNA__223__CLK
*178 ANTENNA__224__CLK
*179 ANTENNA__225__CLK
*180 ANTENNA__226__CLK
*181 ANTENNA__227__CLK
*182 ANTENNA__228__CLK
*183 ANTENNA__229__CLK
*184 ANTENNA__230__CLK
*185 ANTENNA__231__CLK
*186 ANTENNA__232__CLK
*187 ANTENNA__233__CLK
*188 ANTENNA__234__CLK
*189 ANTENNA__235__CLK
*190 ANTENNA__236__CLK
*191 ANTENNA__237__CLK
*192 ANTENNA__238__CLK
*193 ANTENNA__239__CLK
*194 ANTENNA_clkbuf_0_clk_I
*195 FILLER_0_0_104
*196 FILLER_0_0_138
*197 FILLER_0_0_142
*198 FILLER_0_0_172
*199 FILLER_0_0_176
*200 FILLER_0_0_2
*201 FILLER_0_0_232
*202 FILLER_0_0_236
*203 FILLER_0_0_240
*204 FILLER_0_0_274
*205 FILLER_0_0_308
*206 FILLER_0_0_342
*207 FILLER_0_0_346
*208 FILLER_0_0_348
*209 FILLER_0_0_36
*210 FILLER_0_0_70
*211 FILLER_0_10_101
*212 FILLER_0_10_107
*213 FILLER_0_10_171
*214 FILLER_0_10_177
*215 FILLER_0_10_2
*216 FILLER_0_10_241
*217 FILLER_0_10_247
*218 FILLER_0_10_311
*219 FILLER_0_10_317
*220 FILLER_0_10_34
*221 FILLER_0_10_37
*222 FILLER_0_11_136
*223 FILLER_0_11_142
*224 FILLER_0_11_150
*225 FILLER_0_11_154
*226 FILLER_0_11_187
*227 FILLER_0_11_2
*228 FILLER_0_11_203
*229 FILLER_0_11_207
*230 FILLER_0_11_209
*231 FILLER_0_11_212
*232 FILLER_0_11_276
*233 FILLER_0_11_282
*234 FILLER_0_11_346
*235 FILLER_0_11_348
*236 FILLER_0_11_66
*237 FILLER_0_11_72
*238 FILLER_0_12_101
*239 FILLER_0_12_107
*240 FILLER_0_12_123
*241 FILLER_0_12_154
*242 FILLER_0_12_158
*243 FILLER_0_12_174
*244 FILLER_0_12_177
*245 FILLER_0_12_2
*246 FILLER_0_12_241
*247 FILLER_0_12_247
*248 FILLER_0_12_311
*249 FILLER_0_12_317
*250 FILLER_0_12_34
*251 FILLER_0_12_37
*252 FILLER_0_13_136
*253 FILLER_0_13_142
*254 FILLER_0_13_152
*255 FILLER_0_13_160
*256 FILLER_0_13_164
*257 FILLER_0_13_2
*258 FILLER_0_13_200
*259 FILLER_0_13_204
*260 FILLER_0_13_208
*261 FILLER_0_13_241
*262 FILLER_0_13_245
*263 FILLER_0_13_277
*264 FILLER_0_13_279
*265 FILLER_0_13_282
*266 FILLER_0_13_346
*267 FILLER_0_13_348
*268 FILLER_0_13_66
*269 FILLER_0_13_72
*270 FILLER_0_14_101
*271 FILLER_0_14_107
*272 FILLER_0_14_123
*273 FILLER_0_14_159
*274 FILLER_0_14_163
*275 FILLER_0_14_185
*276 FILLER_0_14_2
*277 FILLER_0_14_201
*278 FILLER_0_14_209
*279 FILLER_0_14_224
*280 FILLER_0_14_240
*281 FILLER_0_14_244
*282 FILLER_0_14_247
*283 FILLER_0_14_311
*284 FILLER_0_14_317
*285 FILLER_0_14_34
*286 FILLER_0_14_37
*287 FILLER_0_15_138
*288 FILLER_0_15_142
*289 FILLER_0_15_156
*290 FILLER_0_15_188
*291 FILLER_0_15_196
*292 FILLER_0_15_198
*293 FILLER_0_15_2
*294 FILLER_0_15_207
*295 FILLER_0_15_209
*296 FILLER_0_15_212
*297 FILLER_0_15_219
*298 FILLER_0_15_249
*299 FILLER_0_15_253
*300 FILLER_0_15_269
*301 FILLER_0_15_277
*302 FILLER_0_15_279
*303 FILLER_0_15_282
*304 FILLER_0_15_346
*305 FILLER_0_15_348
*306 FILLER_0_15_66
*307 FILLER_0_15_72
*308 FILLER_0_16_101
*309 FILLER_0_16_144
*310 FILLER_0_16_160
*311 FILLER_0_16_168
*312 FILLER_0_16_177
*313 FILLER_0_16_2
*314 FILLER_0_16_224
*315 FILLER_0_16_232
*316 FILLER_0_16_239
*317 FILLER_0_16_243
*318 FILLER_0_16_247
*319 FILLER_0_16_311
*320 FILLER_0_16_317
*321 FILLER_0_16_34
*322 FILLER_0_16_37
*323 FILLER_0_17_104
*324 FILLER_0_17_106
*325 FILLER_0_17_136
*326 FILLER_0_17_160
*327 FILLER_0_17_176
*328 FILLER_0_17_183
*329 FILLER_0_17_195
*330 FILLER_0_17_203
*331 FILLER_0_17_207
*332 FILLER_0_17_209
*333 FILLER_0_17_212
*334 FILLER_0_17_216
*335 FILLER_0_17_228
*336 FILLER_0_17_230
*337 FILLER_0_17_262
*338 FILLER_0_17_278
*339 FILLER_0_17_28
*340 FILLER_0_17_282
*341 FILLER_0_17_314
*342 FILLER_0_17_322
*343 FILLER_0_17_60
*344 FILLER_0_17_68
*345 FILLER_0_17_72
*346 FILLER_0_18_101
*347 FILLER_0_18_107
*348 FILLER_0_18_123
*349 FILLER_0_18_131
*350 FILLER_0_18_135
*351 FILLER_0_18_153
*352 FILLER_0_18_193
*353 FILLER_0_18_2
*354 FILLER_0_18_201
*355 FILLER_0_18_205
*356 FILLER_0_18_212
*357 FILLER_0_18_228
*358 FILLER_0_18_231
*359 FILLER_0_18_243
*360 FILLER_0_18_253
*361 FILLER_0_18_285
*362 FILLER_0_18_301
*363 FILLER_0_18_309
*364 FILLER_0_18_313
*365 FILLER_0_18_317
*366 FILLER_0_18_321
*367 FILLER_0_18_34
*368 FILLER_0_18_37
*369 FILLER_0_19_116
*370 FILLER_0_19_120
*371 FILLER_0_19_136
*372 FILLER_0_19_142
*373 FILLER_0_19_155
*374 FILLER_0_19_178
*375 FILLER_0_19_2
*376 FILLER_0_19_206
*377 FILLER_0_19_224
*378 FILLER_0_19_260
*379 FILLER_0_19_276
*380 FILLER_0_19_282
*381 FILLER_0_19_346
*382 FILLER_0_19_348
*383 FILLER_0_19_66
*384 FILLER_0_19_72
*385 FILLER_0_19_80
*386 FILLER_0_19_84
*387 FILLER_0_19_86
*388 FILLER_0_1_136
*389 FILLER_0_1_142
*390 FILLER_0_1_150
*391 FILLER_0_1_154
*392 FILLER_0_1_156
*393 FILLER_0_1_183
*394 FILLER_0_1_199
*395 FILLER_0_1_2
*396 FILLER_0_1_207
*397 FILLER_0_1_209
*398 FILLER_0_1_238
*399 FILLER_0_1_270
*400 FILLER_0_1_278
*401 FILLER_0_1_282
*402 FILLER_0_1_346
*403 FILLER_0_1_348
*404 FILLER_0_1_66
*405 FILLER_0_1_72
*406 FILLER_0_20_101
*407 FILLER_0_20_107
*408 FILLER_0_20_111
*409 FILLER_0_20_115
*410 FILLER_0_20_117
*411 FILLER_0_20_123
*412 FILLER_0_20_131
*413 FILLER_0_20_168
*414 FILLER_0_20_191
*415 FILLER_0_20_2
*416 FILLER_0_20_247
*417 FILLER_0_20_311
*418 FILLER_0_20_317
*419 FILLER_0_20_321
*420 FILLER_0_20_34
*421 FILLER_0_20_37
*422 FILLER_0_21_113
*423 FILLER_0_21_115
*424 FILLER_0_21_158
*425 FILLER_0_21_192
*426 FILLER_0_21_196
*427 FILLER_0_21_2
*428 FILLER_0_21_218
*429 FILLER_0_21_222
*430 FILLER_0_21_238
*431 FILLER_0_21_270
*432 FILLER_0_21_278
*433 FILLER_0_21_282
*434 FILLER_0_21_346
*435 FILLER_0_21_348
*436 FILLER_0_21_66
*437 FILLER_0_21_72
*438 FILLER_0_21_80
*439 FILLER_0_22_101
*440 FILLER_0_22_107
*441 FILLER_0_22_111
*442 FILLER_0_22_2
*443 FILLER_0_22_227
*444 FILLER_0_22_231
*445 FILLER_0_22_247
*446 FILLER_0_22_251
*447 FILLER_0_22_317
*448 FILLER_0_22_34
*449 FILLER_0_22_37
*450 FILLER_0_22_69
*451 FILLER_0_22_85
*452 FILLER_0_22_93
*453 FILLER_0_23_104
*454 FILLER_0_23_108
*455 FILLER_0_23_129
*456 FILLER_0_23_142
*457 FILLER_0_23_144
*458 FILLER_0_23_153
*459 FILLER_0_23_157
*460 FILLER_0_23_2
*461 FILLER_0_23_205
*462 FILLER_0_23_209
*463 FILLER_0_23_212
*464 FILLER_0_23_274
*465 FILLER_0_23_278
*466 FILLER_0_23_282
*467 FILLER_0_23_314
*468 FILLER_0_23_322
*469 FILLER_0_23_66
*470 FILLER_0_23_72
*471 FILLER_0_24_101
*472 FILLER_0_24_107
*473 FILLER_0_24_115
*474 FILLER_0_24_125
*475 FILLER_0_24_127
*476 FILLER_0_24_133
*477 FILLER_0_24_2
*478 FILLER_0_24_228
*479 FILLER_0_24_236
*480 FILLER_0_24_240
*481 FILLER_0_24_242
*482 FILLER_0_24_247
*483 FILLER_0_24_311
*484 FILLER_0_24_317
*485 FILLER_0_24_321
*486 FILLER_0_24_34
*487 FILLER_0_24_37
*488 FILLER_0_25_121
*489 FILLER_0_25_125
*490 FILLER_0_25_137
*491 FILLER_0_25_139
*492 FILLER_0_25_142
*493 FILLER_0_25_146
*494 FILLER_0_25_148
*495 FILLER_0_25_183
*496 FILLER_0_25_191
*497 FILLER_0_25_201
*498 FILLER_0_25_209
*499 FILLER_0_25_217
*500 FILLER_0_25_221
*501 FILLER_0_25_253
*502 FILLER_0_25_269
*503 FILLER_0_25_277
*504 FILLER_0_25_279
*505 FILLER_0_25_28
*506 FILLER_0_25_282
*507 FILLER_0_25_346
*508 FILLER_0_25_348
*509 FILLER_0_25_60
*510 FILLER_0_25_68
*511 FILLER_0_25_72
*512 FILLER_0_25_88
*513 FILLER_0_26_101
*514 FILLER_0_26_107
*515 FILLER_0_26_115
*516 FILLER_0_26_119
*517 FILLER_0_26_121
*518 FILLER_0_26_128
*519 FILLER_0_26_141
*520 FILLER_0_26_149
*521 FILLER_0_26_163
*522 FILLER_0_26_172
*523 FILLER_0_26_174
*524 FILLER_0_26_177
*525 FILLER_0_26_185
*526 FILLER_0_26_2
*527 FILLER_0_26_221
*528 FILLER_0_26_229
*529 FILLER_0_26_247
*530 FILLER_0_26_311
*531 FILLER_0_26_317
*532 FILLER_0_26_321
*533 FILLER_0_26_34
*534 FILLER_0_26_37
*535 FILLER_0_27_100
*536 FILLER_0_27_102
*537 FILLER_0_27_132
*538 FILLER_0_27_136
*539 FILLER_0_27_149
*540 FILLER_0_27_157
*541 FILLER_0_27_161
*542 FILLER_0_27_163
*543 FILLER_0_27_171
*544 FILLER_0_27_2
*545 FILLER_0_27_203
*546 FILLER_0_27_207
*547 FILLER_0_27_209
*548 FILLER_0_27_212
*549 FILLER_0_27_218
*550 FILLER_0_27_250
*551 FILLER_0_27_254
*552 FILLER_0_27_270
*553 FILLER_0_27_278
*554 FILLER_0_27_282
*555 FILLER_0_27_314
*556 FILLER_0_27_322
*557 FILLER_0_27_66
*558 FILLER_0_27_72
*559 FILLER_0_27_88
*560 FILLER_0_27_96
*561 FILLER_0_28_101
*562 FILLER_0_28_107
*563 FILLER_0_28_123
*564 FILLER_0_28_131
*565 FILLER_0_28_135
*566 FILLER_0_28_138
*567 FILLER_0_28_145
*568 FILLER_0_28_161
*569 FILLER_0_28_169
*570 FILLER_0_28_173
*571 FILLER_0_28_186
*572 FILLER_0_28_236
*573 FILLER_0_28_238
*574 FILLER_0_28_253
*575 FILLER_0_28_28
*576 FILLER_0_28_285
*577 FILLER_0_28_301
*578 FILLER_0_28_309
*579 FILLER_0_28_313
*580 FILLER_0_28_317
*581 FILLER_0_28_32
*582 FILLER_0_28_321
*583 FILLER_0_28_34
*584 FILLER_0_28_37
*585 FILLER_0_29_104
*586 FILLER_0_29_120
*587 FILLER_0_29_127
*588 FILLER_0_29_129
*589 FILLER_0_29_138
*590 FILLER_0_29_142
*591 FILLER_0_29_146
*592 FILLER_0_29_153
*593 FILLER_0_29_173
*594 FILLER_0_29_2
*595 FILLER_0_29_203
*596 FILLER_0_29_207
*597 FILLER_0_29_209
*598 FILLER_0_29_212
*599 FILLER_0_29_223
*600 FILLER_0_29_233
*601 FILLER_0_29_265
*602 FILLER_0_29_273
*603 FILLER_0_29_277
*604 FILLER_0_29_279
*605 FILLER_0_29_282
*606 FILLER_0_29_314
*607 FILLER_0_29_322
*608 FILLER_0_29_66
*609 FILLER_0_29_72
*610 FILLER_0_2_101
*611 FILLER_0_2_107
*612 FILLER_0_2_171
*613 FILLER_0_2_177
*614 FILLER_0_2_2
*615 FILLER_0_2_209
*616 FILLER_0_2_243
*617 FILLER_0_2_247
*618 FILLER_0_2_311
*619 FILLER_0_2_317
*620 FILLER_0_2_34
*621 FILLER_0_2_37
*622 FILLER_0_30_101
*623 FILLER_0_30_136
*624 FILLER_0_30_183
*625 FILLER_0_30_2
*626 FILLER_0_30_215
*627 FILLER_0_30_231
*628 FILLER_0_30_239
*629 FILLER_0_30_243
*630 FILLER_0_30_247
*631 FILLER_0_30_311
*632 FILLER_0_30_317
*633 FILLER_0_30_321
*634 FILLER_0_30_34
*635 FILLER_0_30_37
*636 FILLER_0_31_104
*637 FILLER_0_31_108
*638 FILLER_0_31_110
*639 FILLER_0_31_147
*640 FILLER_0_31_151
*641 FILLER_0_31_155
*642 FILLER_0_31_187
*643 FILLER_0_31_2
*644 FILLER_0_31_203
*645 FILLER_0_31_207
*646 FILLER_0_31_209
*647 FILLER_0_31_212
*648 FILLER_0_31_276
*649 FILLER_0_31_282
*650 FILLER_0_31_346
*651 FILLER_0_31_348
*652 FILLER_0_31_66
*653 FILLER_0_31_72
*654 FILLER_0_32_101
*655 FILLER_0_32_107
*656 FILLER_0_32_139
*657 FILLER_0_32_155
*658 FILLER_0_32_168
*659 FILLER_0_32_177
*660 FILLER_0_32_2
*661 FILLER_0_32_241
*662 FILLER_0_32_247
*663 FILLER_0_32_311
*664 FILLER_0_32_317
*665 FILLER_0_32_34
*666 FILLER_0_32_37
*667 FILLER_0_33_136
*668 FILLER_0_33_142
*669 FILLER_0_33_2
*670 FILLER_0_33_206
*671 FILLER_0_33_212
*672 FILLER_0_33_276
*673 FILLER_0_33_282
*674 FILLER_0_33_346
*675 FILLER_0_33_348
*676 FILLER_0_33_66
*677 FILLER_0_33_72
*678 FILLER_0_34_101
*679 FILLER_0_34_107
*680 FILLER_0_34_171
*681 FILLER_0_34_177
*682 FILLER_0_34_2
*683 FILLER_0_34_241
*684 FILLER_0_34_247
*685 FILLER_0_34_311
*686 FILLER_0_34_317
*687 FILLER_0_34_34
*688 FILLER_0_34_37
*689 FILLER_0_35_136
*690 FILLER_0_35_142
*691 FILLER_0_35_2
*692 FILLER_0_35_206
*693 FILLER_0_35_212
*694 FILLER_0_35_276
*695 FILLER_0_35_282
*696 FILLER_0_35_346
*697 FILLER_0_35_348
*698 FILLER_0_35_66
*699 FILLER_0_35_72
*700 FILLER_0_36_101
*701 FILLER_0_36_107
*702 FILLER_0_36_171
*703 FILLER_0_36_177
*704 FILLER_0_36_2
*705 FILLER_0_36_241
*706 FILLER_0_36_247
*707 FILLER_0_36_311
*708 FILLER_0_36_317
*709 FILLER_0_36_34
*710 FILLER_0_36_37
*711 FILLER_0_37_136
*712 FILLER_0_37_142
*713 FILLER_0_37_2
*714 FILLER_0_37_206
*715 FILLER_0_37_212
*716 FILLER_0_37_276
*717 FILLER_0_37_282
*718 FILLER_0_37_346
*719 FILLER_0_37_348
*720 FILLER_0_37_66
*721 FILLER_0_37_72
*722 FILLER_0_38_101
*723 FILLER_0_38_107
*724 FILLER_0_38_171
*725 FILLER_0_38_177
*726 FILLER_0_38_2
*727 FILLER_0_38_241
*728 FILLER_0_38_247
*729 FILLER_0_38_311
*730 FILLER_0_38_317
*731 FILLER_0_38_34
*732 FILLER_0_38_37
*733 FILLER_0_39_136
*734 FILLER_0_39_142
*735 FILLER_0_39_2
*736 FILLER_0_39_206
*737 FILLER_0_39_212
*738 FILLER_0_39_276
*739 FILLER_0_39_282
*740 FILLER_0_39_346
*741 FILLER_0_39_348
*742 FILLER_0_39_66
*743 FILLER_0_39_72
*744 FILLER_0_3_136
*745 FILLER_0_3_142
*746 FILLER_0_3_2
*747 FILLER_0_3_206
*748 FILLER_0_3_212
*749 FILLER_0_3_276
*750 FILLER_0_3_282
*751 FILLER_0_3_346
*752 FILLER_0_3_348
*753 FILLER_0_3_66
*754 FILLER_0_3_72
*755 FILLER_0_40_101
*756 FILLER_0_40_107
*757 FILLER_0_40_171
*758 FILLER_0_40_177
*759 FILLER_0_40_2
*760 FILLER_0_40_241
*761 FILLER_0_40_247
*762 FILLER_0_40_311
*763 FILLER_0_40_317
*764 FILLER_0_40_34
*765 FILLER_0_40_37
*766 FILLER_0_41_136
*767 FILLER_0_41_142
*768 FILLER_0_41_2
*769 FILLER_0_41_206
*770 FILLER_0_41_212
*771 FILLER_0_41_276
*772 FILLER_0_41_282
*773 FILLER_0_41_346
*774 FILLER_0_41_348
*775 FILLER_0_41_66
*776 FILLER_0_41_72
*777 FILLER_0_42_101
*778 FILLER_0_42_107
*779 FILLER_0_42_171
*780 FILLER_0_42_177
*781 FILLER_0_42_2
*782 FILLER_0_42_241
*783 FILLER_0_42_247
*784 FILLER_0_42_311
*785 FILLER_0_42_317
*786 FILLER_0_42_34
*787 FILLER_0_42_37
*788 FILLER_0_43_136
*789 FILLER_0_43_168
*790 FILLER_0_43_195
*791 FILLER_0_43_2
*792 FILLER_0_43_203
*793 FILLER_0_43_207
*794 FILLER_0_43_209
*795 FILLER_0_43_212
*796 FILLER_0_43_276
*797 FILLER_0_43_282
*798 FILLER_0_43_346
*799 FILLER_0_43_348
*800 FILLER_0_43_66
*801 FILLER_0_43_72
*802 FILLER_0_44_104
*803 FILLER_0_44_138
*804 FILLER_0_44_142
*805 FILLER_0_44_172
*806 FILLER_0_44_2
*807 FILLER_0_44_232
*808 FILLER_0_44_236
*809 FILLER_0_44_240
*810 FILLER_0_44_274
*811 FILLER_0_44_308
*812 FILLER_0_44_342
*813 FILLER_0_44_346
*814 FILLER_0_44_348
*815 FILLER_0_44_36
*816 FILLER_0_44_40
*817 FILLER_0_44_42
*818 FILLER_0_44_47
*819 FILLER_0_44_63
*820 FILLER_0_44_67
*821 FILLER_0_44_70
*822 FILLER_0_4_101
*823 FILLER_0_4_107
*824 FILLER_0_4_171
*825 FILLER_0_4_177
*826 FILLER_0_4_2
*827 FILLER_0_4_241
*828 FILLER_0_4_247
*829 FILLER_0_4_311
*830 FILLER_0_4_317
*831 FILLER_0_4_34
*832 FILLER_0_4_37
*833 FILLER_0_5_136
*834 FILLER_0_5_142
*835 FILLER_0_5_2
*836 FILLER_0_5_206
*837 FILLER_0_5_212
*838 FILLER_0_5_276
*839 FILLER_0_5_282
*840 FILLER_0_5_346
*841 FILLER_0_5_348
*842 FILLER_0_5_66
*843 FILLER_0_5_72
*844 FILLER_0_6_101
*845 FILLER_0_6_107
*846 FILLER_0_6_171
*847 FILLER_0_6_177
*848 FILLER_0_6_2
*849 FILLER_0_6_241
*850 FILLER_0_6_247
*851 FILLER_0_6_311
*852 FILLER_0_6_317
*853 FILLER_0_6_34
*854 FILLER_0_6_37
*855 FILLER_0_7_136
*856 FILLER_0_7_142
*857 FILLER_0_7_2
*858 FILLER_0_7_206
*859 FILLER_0_7_212
*860 FILLER_0_7_276
*861 FILLER_0_7_282
*862 FILLER_0_7_346
*863 FILLER_0_7_348
*864 FILLER_0_7_66
*865 FILLER_0_7_72
*866 FILLER_0_8_101
*867 FILLER_0_8_107
*868 FILLER_0_8_171
*869 FILLER_0_8_177
*870 FILLER_0_8_2
*871 FILLER_0_8_241
*872 FILLER_0_8_247
*873 FILLER_0_8_311
*874 FILLER_0_8_317
*875 FILLER_0_8_34
*876 FILLER_0_8_37
*877 FILLER_0_9_136
*878 FILLER_0_9_142
*879 FILLER_0_9_2
*880 FILLER_0_9_206
*881 FILLER_0_9_212
*882 FILLER_0_9_276
*883 FILLER_0_9_282
*884 FILLER_0_9_346
*885 FILLER_0_9_348
*886 FILLER_0_9_66
*887 FILLER_0_9_72
*888 PHY_EDGE_ROW_0_Left_45
*889 PHY_EDGE_ROW_0_Right_0
*890 PHY_EDGE_ROW_10_Left_55
*891 PHY_EDGE_ROW_10_Right_10
*892 PHY_EDGE_ROW_11_Left_56
*893 PHY_EDGE_ROW_11_Right_11
*894 PHY_EDGE_ROW_12_Left_57
*895 PHY_EDGE_ROW_12_Right_12
*896 PHY_EDGE_ROW_13_Left_58
*897 PHY_EDGE_ROW_13_Right_13
*898 PHY_EDGE_ROW_14_Left_59
*899 PHY_EDGE_ROW_14_Right_14
*900 PHY_EDGE_ROW_15_Left_60
*901 PHY_EDGE_ROW_15_Right_15
*902 PHY_EDGE_ROW_16_Left_61
*903 PHY_EDGE_ROW_16_Right_16
*904 PHY_EDGE_ROW_17_Left_62
*905 PHY_EDGE_ROW_17_Right_17
*906 PHY_EDGE_ROW_18_Left_63
*907 PHY_EDGE_ROW_18_Right_18
*908 PHY_EDGE_ROW_19_Left_64
*909 PHY_EDGE_ROW_19_Right_19
*910 PHY_EDGE_ROW_1_Left_46
*911 PHY_EDGE_ROW_1_Right_1
*912 PHY_EDGE_ROW_20_Left_65
*913 PHY_EDGE_ROW_20_Right_20
*914 PHY_EDGE_ROW_21_Left_66
*915 PHY_EDGE_ROW_21_Right_21
*916 PHY_EDGE_ROW_22_Left_67
*917 PHY_EDGE_ROW_22_Right_22
*918 PHY_EDGE_ROW_23_Left_68
*919 PHY_EDGE_ROW_23_Right_23
*920 PHY_EDGE_ROW_24_Left_69
*921 PHY_EDGE_ROW_24_Right_24
*922 PHY_EDGE_ROW_25_Left_70
*923 PHY_EDGE_ROW_25_Right_25
*924 PHY_EDGE_ROW_26_Left_71
*925 PHY_EDGE_ROW_26_Right_26
*926 PHY_EDGE_ROW_27_Left_72
*927 PHY_EDGE_ROW_27_Right_27
*928 PHY_EDGE_ROW_28_Left_73
*929 PHY_EDGE_ROW_28_Right_28
*930 PHY_EDGE_ROW_29_Left_74
*931 PHY_EDGE_ROW_29_Right_29
*932 PHY_EDGE_ROW_2_Left_47
*933 PHY_EDGE_ROW_2_Right_2
*934 PHY_EDGE_ROW_30_Left_75
*935 PHY_EDGE_ROW_30_Right_30
*936 PHY_EDGE_ROW_31_Left_76
*937 PHY_EDGE_ROW_31_Right_31
*938 PHY_EDGE_ROW_32_Left_77
*939 PHY_EDGE_ROW_32_Right_32
*940 PHY_EDGE_ROW_33_Left_78
*941 PHY_EDGE_ROW_33_Right_33
*942 PHY_EDGE_ROW_34_Left_79
*943 PHY_EDGE_ROW_34_Right_34
*944 PHY_EDGE_ROW_35_Left_80
*945 PHY_EDGE_ROW_35_Right_35
*946 PHY_EDGE_ROW_36_Left_81
*947 PHY_EDGE_ROW_36_Right_36
*948 PHY_EDGE_ROW_37_Left_82
*949 PHY_EDGE_ROW_37_Right_37
*950 PHY_EDGE_ROW_38_Left_83
*951 PHY_EDGE_ROW_38_Right_38
*952 PHY_EDGE_ROW_39_Left_84
*953 PHY_EDGE_ROW_39_Right_39
*954 PHY_EDGE_ROW_3_Left_48
*955 PHY_EDGE_ROW_3_Right_3
*956 PHY_EDGE_ROW_40_Left_85
*957 PHY_EDGE_ROW_40_Right_40
*958 PHY_EDGE_ROW_41_Left_86
*959 PHY_EDGE_ROW_41_Right_41
*960 PHY_EDGE_ROW_42_Left_87
*961 PHY_EDGE_ROW_42_Right_42
*962 PHY_EDGE_ROW_43_Left_88
*963 PHY_EDGE_ROW_43_Right_43
*964 PHY_EDGE_ROW_44_Left_89
*965 PHY_EDGE_ROW_44_Right_44
*966 PHY_EDGE_ROW_4_Left_49
*967 PHY_EDGE_ROW_4_Right_4
*968 PHY_EDGE_ROW_5_Left_50
*969 PHY_EDGE_ROW_5_Right_5
*970 PHY_EDGE_ROW_6_Left_51
*971 PHY_EDGE_ROW_6_Right_6
*972 PHY_EDGE_ROW_7_Left_52
*973 PHY_EDGE_ROW_7_Right_7
*974 PHY_EDGE_ROW_8_Left_53
*975 PHY_EDGE_ROW_8_Right_8
*976 PHY_EDGE_ROW_9_Left_54
*977 PHY_EDGE_ROW_9_Right_9
*978 TAP_TAPCELL_ROW_0_90
*979 TAP_TAPCELL_ROW_0_91
*980 TAP_TAPCELL_ROW_0_92
*981 TAP_TAPCELL_ROW_0_93
*982 TAP_TAPCELL_ROW_0_94
*983 TAP_TAPCELL_ROW_0_95
*984 TAP_TAPCELL_ROW_0_96
*985 TAP_TAPCELL_ROW_0_97
*986 TAP_TAPCELL_ROW_0_98
*987 TAP_TAPCELL_ROW_0_99
*988 TAP_TAPCELL_ROW_10_140
*989 TAP_TAPCELL_ROW_10_141
*990 TAP_TAPCELL_ROW_10_142
*991 TAP_TAPCELL_ROW_10_143
*992 TAP_TAPCELL_ROW_10_144
*993 TAP_TAPCELL_ROW_11_145
*994 TAP_TAPCELL_ROW_11_146
*995 TAP_TAPCELL_ROW_11_147
*996 TAP_TAPCELL_ROW_11_148
*997 TAP_TAPCELL_ROW_12_149
*998 TAP_TAPCELL_ROW_12_150
*999 TAP_TAPCELL_ROW_12_151
*1000 TAP_TAPCELL_ROW_12_152
*1001 TAP_TAPCELL_ROW_12_153
*1002 TAP_TAPCELL_ROW_13_154
*1003 TAP_TAPCELL_ROW_13_155
*1004 TAP_TAPCELL_ROW_13_156
*1005 TAP_TAPCELL_ROW_13_157
*1006 TAP_TAPCELL_ROW_14_158
*1007 TAP_TAPCELL_ROW_14_159
*1008 TAP_TAPCELL_ROW_14_160
*1009 TAP_TAPCELL_ROW_14_161
*1010 TAP_TAPCELL_ROW_14_162
*1011 TAP_TAPCELL_ROW_15_163
*1012 TAP_TAPCELL_ROW_15_164
*1013 TAP_TAPCELL_ROW_15_165
*1014 TAP_TAPCELL_ROW_15_166
*1015 TAP_TAPCELL_ROW_16_167
*1016 TAP_TAPCELL_ROW_16_168
*1017 TAP_TAPCELL_ROW_16_169
*1018 TAP_TAPCELL_ROW_16_170
*1019 TAP_TAPCELL_ROW_16_171
*1020 TAP_TAPCELL_ROW_17_172
*1021 TAP_TAPCELL_ROW_17_173
*1022 TAP_TAPCELL_ROW_17_174
*1023 TAP_TAPCELL_ROW_17_175
*1024 TAP_TAPCELL_ROW_18_176
*1025 TAP_TAPCELL_ROW_18_177
*1026 TAP_TAPCELL_ROW_18_178
*1027 TAP_TAPCELL_ROW_18_179
*1028 TAP_TAPCELL_ROW_18_180
*1029 TAP_TAPCELL_ROW_19_181
*1030 TAP_TAPCELL_ROW_19_182
*1031 TAP_TAPCELL_ROW_19_183
*1032 TAP_TAPCELL_ROW_19_184
*1033 TAP_TAPCELL_ROW_1_100
*1034 TAP_TAPCELL_ROW_1_101
*1035 TAP_TAPCELL_ROW_1_102
*1036 TAP_TAPCELL_ROW_1_103
*1037 TAP_TAPCELL_ROW_20_185
*1038 TAP_TAPCELL_ROW_20_186
*1039 TAP_TAPCELL_ROW_20_187
*1040 TAP_TAPCELL_ROW_20_188
*1041 TAP_TAPCELL_ROW_20_189
*1042 TAP_TAPCELL_ROW_21_190
*1043 TAP_TAPCELL_ROW_21_191
*1044 TAP_TAPCELL_ROW_21_192
*1045 TAP_TAPCELL_ROW_21_193
*1046 TAP_TAPCELL_ROW_22_194
*1047 TAP_TAPCELL_ROW_22_195
*1048 TAP_TAPCELL_ROW_22_196
*1049 TAP_TAPCELL_ROW_22_197
*1050 TAP_TAPCELL_ROW_22_198
*1051 TAP_TAPCELL_ROW_23_199
*1052 TAP_TAPCELL_ROW_23_200
*1053 TAP_TAPCELL_ROW_23_201
*1054 TAP_TAPCELL_ROW_23_202
*1055 TAP_TAPCELL_ROW_24_203
*1056 TAP_TAPCELL_ROW_24_204
*1057 TAP_TAPCELL_ROW_24_205
*1058 TAP_TAPCELL_ROW_24_206
*1059 TAP_TAPCELL_ROW_24_207
*1060 TAP_TAPCELL_ROW_25_208
*1061 TAP_TAPCELL_ROW_25_209
*1062 TAP_TAPCELL_ROW_25_210
*1063 TAP_TAPCELL_ROW_25_211
*1064 TAP_TAPCELL_ROW_26_212
*1065 TAP_TAPCELL_ROW_26_213
*1066 TAP_TAPCELL_ROW_26_214
*1067 TAP_TAPCELL_ROW_26_215
*1068 TAP_TAPCELL_ROW_26_216
*1069 TAP_TAPCELL_ROW_27_217
*1070 TAP_TAPCELL_ROW_27_218
*1071 TAP_TAPCELL_ROW_27_219
*1072 TAP_TAPCELL_ROW_27_220
*1073 TAP_TAPCELL_ROW_28_221
*1074 TAP_TAPCELL_ROW_28_222
*1075 TAP_TAPCELL_ROW_28_223
*1076 TAP_TAPCELL_ROW_28_224
*1077 TAP_TAPCELL_ROW_28_225
*1078 TAP_TAPCELL_ROW_29_226
*1079 TAP_TAPCELL_ROW_29_227
*1080 TAP_TAPCELL_ROW_29_228
*1081 TAP_TAPCELL_ROW_29_229
*1082 TAP_TAPCELL_ROW_2_104
*1083 TAP_TAPCELL_ROW_2_105
*1084 TAP_TAPCELL_ROW_2_106
*1085 TAP_TAPCELL_ROW_2_107
*1086 TAP_TAPCELL_ROW_2_108
*1087 TAP_TAPCELL_ROW_30_230
*1088 TAP_TAPCELL_ROW_30_231
*1089 TAP_TAPCELL_ROW_30_232
*1090 TAP_TAPCELL_ROW_30_233
*1091 TAP_TAPCELL_ROW_30_234
*1092 TAP_TAPCELL_ROW_31_235
*1093 TAP_TAPCELL_ROW_31_236
*1094 TAP_TAPCELL_ROW_31_237
*1095 TAP_TAPCELL_ROW_31_238
*1096 TAP_TAPCELL_ROW_32_239
*1097 TAP_TAPCELL_ROW_32_240
*1098 TAP_TAPCELL_ROW_32_241
*1099 TAP_TAPCELL_ROW_32_242
*1100 TAP_TAPCELL_ROW_32_243
*1101 TAP_TAPCELL_ROW_33_244
*1102 TAP_TAPCELL_ROW_33_245
*1103 TAP_TAPCELL_ROW_33_246
*1104 TAP_TAPCELL_ROW_33_247
*1105 TAP_TAPCELL_ROW_34_248
*1106 TAP_TAPCELL_ROW_34_249
*1107 TAP_TAPCELL_ROW_34_250
*1108 TAP_TAPCELL_ROW_34_251
*1109 TAP_TAPCELL_ROW_34_252
*1110 TAP_TAPCELL_ROW_35_253
*1111 TAP_TAPCELL_ROW_35_254
*1112 TAP_TAPCELL_ROW_35_255
*1113 TAP_TAPCELL_ROW_35_256
*1114 TAP_TAPCELL_ROW_36_257
*1115 TAP_TAPCELL_ROW_36_258
*1116 TAP_TAPCELL_ROW_36_259
*1117 TAP_TAPCELL_ROW_36_260
*1118 TAP_TAPCELL_ROW_36_261
*1119 TAP_TAPCELL_ROW_37_262
*1120 TAP_TAPCELL_ROW_37_263
*1121 TAP_TAPCELL_ROW_37_264
*1122 TAP_TAPCELL_ROW_37_265
*1123 TAP_TAPCELL_ROW_38_266
*1124 TAP_TAPCELL_ROW_38_267
*1125 TAP_TAPCELL_ROW_38_268
*1126 TAP_TAPCELL_ROW_38_269
*1127 TAP_TAPCELL_ROW_38_270
*1128 TAP_TAPCELL_ROW_39_271
*1129 TAP_TAPCELL_ROW_39_272
*1130 TAP_TAPCELL_ROW_39_273
*1131 TAP_TAPCELL_ROW_39_274
*1132 TAP_TAPCELL_ROW_3_109
*1133 TAP_TAPCELL_ROW_3_110
*1134 TAP_TAPCELL_ROW_3_111
*1135 TAP_TAPCELL_ROW_3_112
*1136 TAP_TAPCELL_ROW_40_275
*1137 TAP_TAPCELL_ROW_40_276
*1138 TAP_TAPCELL_ROW_40_277
*1139 TAP_TAPCELL_ROW_40_278
*1140 TAP_TAPCELL_ROW_40_279
*1141 TAP_TAPCELL_ROW_41_280
*1142 TAP_TAPCELL_ROW_41_281
*1143 TAP_TAPCELL_ROW_41_282
*1144 TAP_TAPCELL_ROW_41_283
*1145 TAP_TAPCELL_ROW_42_284
*1146 TAP_TAPCELL_ROW_42_285
*1147 TAP_TAPCELL_ROW_42_286
*1148 TAP_TAPCELL_ROW_42_287
*1149 TAP_TAPCELL_ROW_42_288
*1150 TAP_TAPCELL_ROW_43_289
*1151 TAP_TAPCELL_ROW_43_290
*1152 TAP_TAPCELL_ROW_43_291
*1153 TAP_TAPCELL_ROW_43_292
*1154 TAP_TAPCELL_ROW_44_293
*1155 TAP_TAPCELL_ROW_44_294
*1156 TAP_TAPCELL_ROW_44_295
*1157 TAP_TAPCELL_ROW_44_296
*1158 TAP_TAPCELL_ROW_44_297
*1159 TAP_TAPCELL_ROW_44_298
*1160 TAP_TAPCELL_ROW_44_299
*1161 TAP_TAPCELL_ROW_44_300
*1162 TAP_TAPCELL_ROW_44_301
*1163 TAP_TAPCELL_ROW_44_302
*1164 TAP_TAPCELL_ROW_4_113
*1165 TAP_TAPCELL_ROW_4_114
*1166 TAP_TAPCELL_ROW_4_115
*1167 TAP_TAPCELL_ROW_4_116
*1168 TAP_TAPCELL_ROW_4_117
*1169 TAP_TAPCELL_ROW_5_118
*1170 TAP_TAPCELL_ROW_5_119
*1171 TAP_TAPCELL_ROW_5_120
*1172 TAP_TAPCELL_ROW_5_121
*1173 TAP_TAPCELL_ROW_6_122
*1174 TAP_TAPCELL_ROW_6_123
*1175 TAP_TAPCELL_ROW_6_124
*1176 TAP_TAPCELL_ROW_6_125
*1177 TAP_TAPCELL_ROW_6_126
*1178 TAP_TAPCELL_ROW_7_127
*1179 TAP_TAPCELL_ROW_7_128
*1180 TAP_TAPCELL_ROW_7_129
*1181 TAP_TAPCELL_ROW_7_130
*1182 TAP_TAPCELL_ROW_8_131
*1183 TAP_TAPCELL_ROW_8_132
*1184 TAP_TAPCELL_ROW_8_133
*1185 TAP_TAPCELL_ROW_8_134
*1186 TAP_TAPCELL_ROW_8_135
*1187 TAP_TAPCELL_ROW_9_136
*1188 TAP_TAPCELL_ROW_9_137
*1189 TAP_TAPCELL_ROW_9_138
*1190 TAP_TAPCELL_ROW_9_139
*1191 _107_
*1192 _108_
*1193 _109_
*1194 _110_
*1195 _111_
*1196 _112_
*1197 _113_
*1198 _114_
*1199 _115_
*1200 _116_
*1201 _117_
*1202 _118_
*1203 _119_
*1204 _120_
*1205 _121_
*1206 _122_
*1207 _123_
*1208 _124_
*1209 _125_
*1210 _126_
*1211 _127_
*1212 _128_
*1213 _129_
*1214 _130_
*1215 _131_
*1216 _132_
*1217 _133_
*1218 _134_
*1219 _135_
*1220 _136_
*1221 _137_
*1222 _138_
*1223 _139_
*1224 _140_
*1225 _141_
*1226 _142_
*1227 _143_
*1228 _144_
*1229 _145_
*1230 _146_
*1231 _147_
*1232 _148_
*1233 _149_
*1234 _150_
*1235 _151_
*1236 _152_
*1237 _153_
*1238 _154_
*1239 _155_
*1240 _156_
*1241 _157_
*1242 _158_
*1243 _159_
*1244 _160_
*1245 _161_
*1246 _162_
*1247 _163_
*1248 _164_
*1249 _165_
*1250 _166_
*1251 _167_
*1252 _168_
*1253 _169_
*1254 _170_
*1255 _171_
*1256 _172_
*1257 _173_
*1258 _174_
*1259 _175_
*1260 _176_
*1261 _177_
*1262 _178_
*1263 _179_
*1264 _180_
*1265 _181_
*1266 _182_
*1267 _183_
*1268 _184_
*1269 _185_
*1270 _186_
*1271 _187_
*1272 _188_
*1273 _189_
*1274 _190_
*1275 _191_
*1276 _192_
*1277 _193_
*1278 _194_
*1279 _195_
*1280 _196_
*1281 _197_
*1282 _198_
*1283 _199_
*1284 _200_
*1285 _201_
*1286 _202_
*1287 _203_
*1288 _204_
*1289 _205_
*1290 _206_
*1291 _207_
*1292 _208_
*1293 _209_
*1294 _210_
*1295 _211_
*1296 _212_
*1297 _213_
*1298 _214_
*1299 _215_
*1300 _216_
*1301 _217_
*1302 _218_
*1303 _219_
*1304 _220_
*1305 _221_
*1306 _222_
*1307 _223_
*1308 _224_
*1309 _225_
*1310 _226_
*1311 _227_
*1312 _228_
*1313 _229_
*1314 _230_
*1315 _231_
*1316 _232_
*1317 _233_
*1318 _234_
*1319 _235_
*1320 _236_
*1321 _237_
*1322 _238_
*1323 _239_
*1324 _242_
*1325 _243_
*1326 clkbuf_0_clk
*1327 clkbuf_1_0__f_clk
*1328 clkbuf_1_1__f_clk
*1329 ita42_25
*1330 ita42_26
*1331 output1
*1332 output10
*1333 output11
*1334 output12
*1335 output13
*1336 output14
*1337 output15
*1338 output16
*1339 output17
*1340 output18
*1341 output19
*1342 output2
*1343 output20
*1344 output21
*1345 output22
*1346 output23
*1347 output24
*1348 output3
*1349 output4
*1350 output5
*1351 output6
*1352 output7
*1353 output8
*1354 output9

*PORTS
clk I
segm[0] O
segm[10] O
segm[11] O
segm[12] O
segm[13] O
segm[1] O
segm[2] O
segm[3] O
segm[4] O
segm[5] O
segm[6] O
segm[7] O
segm[8] O
segm[9] O
sel[0] O
sel[10] O
sel[11] O
sel[1] O
sel[2] O
sel[3] O
sel[4] O
sel[5] O
sel[6] O
sel[7] O
sel[8] O
sel[9] O

*D_NET *1 0.0160259
*CONN
*P clk I
*I *194:I I *D gf180mcu_fd_sc_mcu7t5v0__antenna
*I *1326:I I *D gf180mcu_fd_sc_mcu7t5v0__clkbuf_16
*CAP
1 clk 0.00488611
2 *194:I 0.000205617
3 *1326:I 0
4 *1:21 0.00509173
5 *194:I *1291:A3 5.61938e-05
6 *194:I *1327:I 0.000664474
7 *194:I *70:10 0.000298437
8 *194:I *143:8 6.46448e-05
9 *1:21 *1233:I 0.000705383
10 *1:21 *1235:I 0
11 *1:21 *1275:A1 0.000251807
12 *1:21 *1291:A3 1.70306e-05
13 *1:21 *1302:D 0.000329463
14 *1:21 *1327:I 0.000998025
15 *1:21 *31:29 0.000493764
16 *1:21 *80:10 2.91769e-05
17 *1:21 *99:25 0.000244862
18 *1:21 *130:31 0.00168918
*RES
1 clk *1:21 47.798 
2 *1:21 *1326:I 9 
3 *1:21 *194:I 11.584 
*END

*D_NET *2 0.00148312
*CONN
*P segm[0] O
*I *1329:ZN O *D gf180mcu_fd_sc_mcu7t5v0__tiel
*CAP
1 segm[0] 0.000741562
2 *1329:ZN 0.000741562
*RES
1 *1329:ZN segm[0] 9.478 
*END

*D_NET *3 0.000751989
*CONN
*P segm[10] O
*I *1331:Z O *D gf180mcu_fd_sc_mcu7t5v0__buf_8
*CAP
1 segm[10] 0.000375995
2 *1331:Z 0.000375995
*RES
1 *1331:Z segm[10] 11.394 
*END

*D_NET *4 0.000931776
*CONN
*P segm[11] O
*I *1342:Z O *D gf180mcu_fd_sc_mcu7t5v0__buf_8
*CAP
1 segm[11] 0.000433654
2 *1342:Z 0.000433654
3 segm[11] sel[1] 6.44669e-05
*RES
1 *1342:Z segm[11] 12.002 
*END

*D_NET *5 0.00251352
*CONN
*P segm[12] O
*I *1348:Z O *D gf180mcu_fd_sc_mcu7t5v0__buf_8
*CAP
1 segm[12] 0.00125676
2 *1348:Z 0.00125676
3 segm[12] segm[7] 0
*RES
1 *1348:Z segm[12] 21.822 
*END

*D_NET *6 0.00215337
*CONN
*P segm[13] O
*I *1349:Z O *D gf180mcu_fd_sc_mcu7t5v0__buf_8
*CAP
1 segm[13] 0.0010014
2 *1349:Z 0.0010014
3 segm[13] segm[4] 0.000150574
4 segm[13] *1334:I 0
*RES
1 *1349:Z segm[13] 20.454 
*END

*D_NET *7 0.000931776
*CONN
*P segm[1] O
*I *1350:Z O *D gf180mcu_fd_sc_mcu7t5v0__buf_8
*CAP
1 segm[1] 0.000433654
2 *1350:Z 0.000433654
3 segm[1] sel[9] 6.44669e-05
*RES
1 *1350:Z segm[1] 12.002 
*END

*D_NET *8 0.0021528
*CONN
*P segm[2] O
*I *1351:Z O *D gf180mcu_fd_sc_mcu7t5v0__buf_8
*CAP