*SPEF "ieee 1481-1999"
*DESIGN "ita49"
*DATE "11:11:11 Fri 11 11, 1111"
*VENDOR "OpenRCX"
*PROGRAM "Parallel Extraction"
*VERSION "1.0"
*DESIGN_FLOW "NAME_SCOPE LOCAL" "PIN_CAP NONE"
*DIVIDER /
*DELIMITER :
*BUS_DELIMITER []
*T_UNIT 1 NS
*C_UNIT 1 PF
*R_UNIT 1 OHM
*L_UNIT 1 HENRY

*NAME_MAP
*1 clk
*2 net25
*3 segm[10]
*4 segm[11]
*5 segm[12]
*6 segm[13]
*7 segm[1]
*8 segm[2]
*9 net26
*10 segm[4]
*11 segm[5]
*12 segm[6]
*13 segm[7]
*14 segm[8]
*15 segm[9]
*16 sel[0]
*17 sel[10]
*18 sel[11]
*19 sel[1]
*20 sel[2]
*21 sel[3]
*22 sel[4]
*23 sel[5]
*24 sel[6]
*25 sel[7]
*26 sel[8]
*27 sel[9]
*30 _000_
*31 _001_
*32 _002_
*33 _003_
*34 _004_
*35 _005_
*36 _006_
*37 _007_
*38 _008_
*39 _009_
*40 _010_
*41 _011_
*42 _012_
*43 _013_
*44 _014_
*45 _015_
*46 _016_
*47 _017_
*48 _018_
*49 _019_
*50 _020_
*51 _021_
*52 _022_
*53 _023_
*54 _024_
*55 _025_
*56 _026_
*57 _027_
*58 _028_
*59 _029_
*60 _030_
*61 _031_
*62 _032_
*63 _033_
*64 _034_
*65 _035_
*66 _036_
*67 _037_
*68 _038_
*69 _039_
*70 _040_
*71 _041_
*72 _042_
*73 _043_
*74 _044_
*75 _045_
*76 _046_
*77 _047_
*78 _048_
*79 _049_
*80 _050_
*81 _051_
*82 _052_
*83 _053_
*84 _054_
*85 _055_
*86 _056_
*87 _057_
*88 _058_
*89 _059_
*90 _060_
*91 _061_
*92 _062_
*93 _063_
*94 _064_
*95 _065_
*96 _066_
*97 _067_
*98 _068_
*99 _069_
*100 _070_
*101 _071_
*102 _072_
*103 _073_
*104 _074_
*105 _075_
*106 _076_
*107 _077_
*108 _078_
*109 _079_
*110 _080_
*111 _081_
*112 _082_
*113 _083_
*114 _084_
*115 _085_
*116 _086_
*117 _087_
*118 _088_
*119 _089_
*120 _090_
*121 _091_
*122 _092_
*123 _093_
*124 _094_
*125 _095_
*126 _096_
*127 _097_
*128 _098_
*129 _099_
*130 _100_
*131 _101_
*132 _102_
*133 _103_
*134 _104_
*135 _105_
*136 _106_
*137 _107_
*138 _108_
*139 _109_
*140 _110_
*141 _111_
*142 _112_
*143 _113_
*144 _114_
*145 _115_
*146 _116_
*147 _117_
*148 _118_
*149 _119_
*150 _120_
*151 _121_
*152 clknet_0_clk
*153 clknet_1_0__leaf_clk
*154 clknet_1_1__leaf_clk
*155 dut49\.count\[0\]
*156 dut49\.count\[1\]
*157 dut49\.count\[2\]
*158 dut49\.count\[3\]
*159 net1
*160 net10
*161 net11
*162 net12
*163 net13
*164 net14
*165 net15
*166 net16
*167 net17
*168 net18
*169 net19
*170 net2
*171 net20
*172 net21
*173 net22
*174 net23
*175 net24
*176 net3
*177 net4
*178 net5
*179 net6
*180 net7
*181 net8
*182 net9
*183 ANTENNA__141__A3
*184 ANTENNA__208__A1
*185 ANTENNA__212__A2
*186 ANTENNA__215__A2
*187 ANTENNA__244__CLK
*188 ANTENNA__245__CLK
*189 ANTENNA__246__CLK
*190 ANTENNA__247__CLK
*191 ANTENNA__248__CLK
*192 ANTENNA__249__CLK
*193 ANTENNA__250__CLK
*194 ANTENNA__251__CLK
*195 ANTENNA__252__CLK
*196 ANTENNA__253__CLK
*197 ANTENNA__254__CLK
*198 ANTENNA__255__CLK
*199 ANTENNA__256__CLK
*200 ANTENNA__257__CLK
*201 ANTENNA__258__CLK
*202 ANTENNA__259__CLK
*203 ANTENNA__260__CLK
*204 ANTENNA__261__CLK
*205 ANTENNA__262__CLK
*206 ANTENNA__263__CLK
*207 ANTENNA__264__CLK
*208 ANTENNA__265__CLK
*209 ANTENNA__266__CLK
*210 ANTENNA__267__CLK
*211 ANTENNA__268__CLK
*212 ANTENNA__269__CLK
*213 ANTENNA_clkbuf_0_clk_I
*214 FILLER_0_0_104
*215 FILLER_0_0_138
*216 FILLER_0_0_142
*217 FILLER_0_0_198
*218 FILLER_0_0_2
*219 FILLER_0_0_202
*220 FILLER_0_0_232
*221 FILLER_0_0_236
*222 FILLER_0_0_240
*223 FILLER_0_0_274
*224 FILLER_0_0_308
*225 FILLER_0_0_342
*226 FILLER_0_0_346
*227 FILLER_0_0_348
*228 FILLER_0_0_36
*229 FILLER_0_0_70
*230 FILLER_0_10_101
*231 FILLER_0_10_107
*232 FILLER_0_10_171
*233 FILLER_0_10_177
*234 FILLER_0_10_2
*235 FILLER_0_10_241
*236 FILLER_0_10_247
*237 FILLER_0_10_311
*238 FILLER_0_10_317
*239 FILLER_0_10_34
*240 FILLER_0_10_37
*241 FILLER_0_11_136
*242 FILLER_0_11_142
*243 FILLER_0_11_2
*244 FILLER_0_11_206
*245 FILLER_0_11_212
*246 FILLER_0_11_276
*247 FILLER_0_11_282
*248 FILLER_0_11_346
*249 FILLER_0_11_348
*250 FILLER_0_11_66
*251 FILLER_0_11_72
*252 FILLER_0_12_101
*253 FILLER_0_12_107
*254 FILLER_0_12_139
*255 FILLER_0_12_143
*256 FILLER_0_12_177
*257 FILLER_0_12_185
*258 FILLER_0_12_2
*259 FILLER_0_12_218
*260 FILLER_0_12_222
*261 FILLER_0_12_238
*262 FILLER_0_12_242
*263 FILLER_0_12_244
*264 FILLER_0_12_247
*265 FILLER_0_12_311
*266 FILLER_0_12_317
*267 FILLER_0_12_34
*268 FILLER_0_12_37
*269 FILLER_0_13_104
*270 FILLER_0_13_108
*271 FILLER_0_13_110
*272 FILLER_0_13_142
*273 FILLER_0_13_146
*274 FILLER_0_13_148
*275 FILLER_0_13_153
*276 FILLER_0_13_157
*277 FILLER_0_13_2
*278 FILLER_0_13_205
*279 FILLER_0_13_209
*280 FILLER_0_13_218
*281 FILLER_0_13_231
*282 FILLER_0_13_263
*283 FILLER_0_13_279
*284 FILLER_0_13_282
*285 FILLER_0_13_346
*286 FILLER_0_13_348
*287 FILLER_0_13_66
*288 FILLER_0_13_72
*289 FILLER_0_14_101
*290 FILLER_0_14_107
*291 FILLER_0_14_162
*292 FILLER_0_14_174
*293 FILLER_0_14_177
*294 FILLER_0_14_194
*295 FILLER_0_14_196
*296 FILLER_0_14_199
*297 FILLER_0_14_2
*298 FILLER_0_14_207
*299 FILLER_0_14_211
*300 FILLER_0_14_242
*301 FILLER_0_14_244
*302 FILLER_0_14_247
*303 FILLER_0_14_251
*304 FILLER_0_14_317
*305 FILLER_0_14_34
*306 FILLER_0_14_37
*307 FILLER_0_15_136
*308 FILLER_0_15_142
*309 FILLER_0_15_150
*310 FILLER_0_15_154
*311 FILLER_0_15_170
*312 FILLER_0_15_174
*313 FILLER_0_15_176
*314 FILLER_0_15_191
*315 FILLER_0_15_2
*316 FILLER_0_15_207
*317 FILLER_0_15_209
*318 FILLER_0_15_249
*319 FILLER_0_15_253
*320 FILLER_0_15_269
*321 FILLER_0_15_277
*322 FILLER_0_15_279
*323 FILLER_0_15_282
*324 FILLER_0_15_314
*325 FILLER_0_15_322
*326 FILLER_0_15_66
*327 FILLER_0_15_72
*328 FILLER_0_16_101
*329 FILLER_0_16_107
*330 FILLER_0_16_171
*331 FILLER_0_16_183
*332 FILLER_0_16_199
*333 FILLER_0_16_2
*334 FILLER_0_16_201
*335 FILLER_0_16_236
*336 FILLER_0_16_240
*337 FILLER_0_16_244
*338 FILLER_0_16_247
*339 FILLER_0_16_311
*340 FILLER_0_16_317
*341 FILLER_0_16_34
*342 FILLER_0_16_37
*343 FILLER_0_17_100
*344 FILLER_0_17_102
*345 FILLER_0_17_132
*346 FILLER_0_17_136
*347 FILLER_0_17_142
*348 FILLER_0_17_158
*349 FILLER_0_17_162
*350 FILLER_0_17_169
*351 FILLER_0_17_177
*352 FILLER_0_17_191
*353 FILLER_0_17_199
*354 FILLER_0_17_2
*355 FILLER_0_17_208
*356 FILLER_0_17_228
*357 FILLER_0_17_260
*358 FILLER_0_17_276
*359 FILLER_0_17_282
*360 FILLER_0_17_314
*361 FILLER_0_17_322
*362 FILLER_0_17_66
*363 FILLER_0_17_72
*364 FILLER_0_17_88
*365 FILLER_0_17_96
*366 FILLER_0_18_101
*367 FILLER_0_18_107
*368 FILLER_0_18_123
*369 FILLER_0_18_131
*370 FILLER_0_18_135
*371 FILLER_0_18_139
*372 FILLER_0_18_165
*373 FILLER_0_18_185
*374 FILLER_0_18_187
*375 FILLER_0_18_2
*376 FILLER_0_18_208
*377 FILLER_0_18_240
*378 FILLER_0_18_244
*379 FILLER_0_18_247
*380 FILLER_0_18_311
*381 FILLER_0_18_317
*382 FILLER_0_18_321
*383 FILLER_0_18_34
*384 FILLER_0_18_37
*385 FILLER_0_19_103
*386 FILLER_0_19_107
*387 FILLER_0_19_137
*388 FILLER_0_19_139
*389 FILLER_0_19_142
*390 FILLER_0_19_144
*391 FILLER_0_19_151
*392 FILLER_0_19_182
*393 FILLER_0_19_2
*394 FILLER_0_19_209
*395 FILLER_0_19_212
*396 FILLER_0_19_244
*397 FILLER_0_19_247
*398 FILLER_0_19_279
*399 FILLER_0_19_282
*400 FILLER_0_19_346
*401 FILLER_0_19_348
*402 FILLER_0_19_66
*403 FILLER_0_19_72
*404 FILLER_0_19_88
*405 FILLER_0_19_96
*406 FILLER_0_1_136
*407 FILLER_0_1_142
*408 FILLER_0_1_2
*409 FILLER_0_1_206
*410 FILLER_0_1_238
*411 FILLER_0_1_270
*412 FILLER_0_1_278
*413 FILLER_0_1_282
*414 FILLER_0_1_346
*415 FILLER_0_1_348
*416 FILLER_0_1_66
*417 FILLER_0_1_72
*418 FILLER_0_20_104
*419 FILLER_0_20_107
*420 FILLER_0_20_111
*421 FILLER_0_20_115
*422 FILLER_0_20_136
*423 FILLER_0_20_177
*424 FILLER_0_20_197
*425 FILLER_0_20_209
*426 FILLER_0_20_213
*427 FILLER_0_20_215
*428 FILLER_0_20_255
*429 FILLER_0_20_28
*430 FILLER_0_20_287
*431 FILLER_0_20_303
*432 FILLER_0_20_311
*433 FILLER_0_20_317
*434 FILLER_0_20_32
*435 FILLER_0_20_34
*436 FILLER_0_20_37
*437 FILLER_0_20_69
*438 FILLER_0_20_73
*439 FILLER_0_21_117
*440 FILLER_0_21_142
*441 FILLER_0_21_230
*442 FILLER_0_21_265
*443 FILLER_0_21_273
*444 FILLER_0_21_277
*445 FILLER_0_21_279
*446 FILLER_0_21_28
*447 FILLER_0_21_282
*448 FILLER_0_21_314
*449 FILLER_0_21_322
*450 FILLER_0_21_60
*451 FILLER_0_21_68
*452 FILLER_0_21_72
*453 FILLER_0_21_88
*454 FILLER_0_21_96
*455 FILLER_0_22_104
*456 FILLER_0_22_114
*457 FILLER_0_22_118
*458 FILLER_0_22_122
*459 FILLER_0_22_124
*460 FILLER_0_22_193
*461 FILLER_0_22_2
*462 FILLER_0_22_252
*463 FILLER_0_22_284
*464 FILLER_0_22_300
*465 FILLER_0_22_308
*466 FILLER_0_22_312
*467 FILLER_0_22_314
*468 FILLER_0_22_317
*469 FILLER_0_22_321
*470 FILLER_0_22_34
*471 FILLER_0_22_37
*472 FILLER_0_22_69
*473 FILLER_0_22_73
*474 FILLER_0_23_123
*475 FILLER_0_23_127
*476 FILLER_0_23_131
*477 FILLER_0_23_154
*478 FILLER_0_23_156
*479 FILLER_0_23_202
*480 FILLER_0_23_227
*481 FILLER_0_23_231
*482 FILLER_0_23_233
*483 FILLER_0_23_265
*484 FILLER_0_23_273
*485 FILLER_0_23_277
*486 FILLER_0_23_279
*487 FILLER_0_23_28
*488 FILLER_0_23_282
*489 FILLER_0_23_346
*490 FILLER_0_23_348
*491 FILLER_0_23_60
*492 FILLER_0_23_68
*493 FILLER_0_23_72
*494 FILLER_0_23_88
*495 FILLER_0_24_101
*496 FILLER_0_24_117
*497 FILLER_0_24_133
*498 FILLER_0_24_177
*499 FILLER_0_24_2
*500 FILLER_0_24_211
*501 FILLER_0_24_241
*502 FILLER_0_24_258
*503 FILLER_0_24_290
*504 FILLER_0_24_306
*505 FILLER_0_24_314
*506 FILLER_0_24_317
*507 FILLER_0_24_321
*508 FILLER_0_24_34
*509 FILLER_0_24_37
*510 FILLER_0_25_105
*511 FILLER_0_25_109
*512 FILLER_0_25_125
*513 FILLER_0_25_133
*514 FILLER_0_25_137
*515 FILLER_0_25_139
*516 FILLER_0_25_142
*517 FILLER_0_25_146
*518 FILLER_0_25_167
*519 FILLER_0_25_175
*520 FILLER_0_25_190
*521 FILLER_0_25_2
*522 FILLER_0_25_207
*523 FILLER_0_25_209
*524 FILLER_0_25_230
*525 FILLER_0_25_238
*526 FILLER_0_25_247
*527 FILLER_0_25_279
*528 FILLER_0_25_282
*529 FILLER_0_25_314
*530 FILLER_0_25_322
*531 FILLER_0_25_66
*532 FILLER_0_25_72
*533 FILLER_0_25_88
*534 FILLER_0_25_96
*535 FILLER_0_26_115
*536 FILLER_0_26_152
*537 FILLER_0_26_156
*538 FILLER_0_26_158
*539 FILLER_0_26_163
*540 FILLER_0_26_167
*541 FILLER_0_26_174
*542 FILLER_0_26_177
*543 FILLER_0_26_181
*544 FILLER_0_26_198
*545 FILLER_0_26_230
*546 FILLER_0_26_238
*547 FILLER_0_26_242
*548 FILLER_0_26_244
*549 FILLER_0_26_255
*550 FILLER_0_26_28
*551 FILLER_0_26_287
*552 FILLER_0_26_303
*553 FILLER_0_26_311
*554 FILLER_0_26_317
*555 FILLER_0_26_32
*556 FILLER_0_26_34
*557 FILLER_0_26_37
*558 FILLER_0_26_69
*559 FILLER_0_26_73
*560 FILLER_0_26_75
*561 FILLER_0_27_100
*562 FILLER_0_27_102
*563 FILLER_0_27_132
*564 FILLER_0_27_136
*565 FILLER_0_27_147
*566 FILLER_0_27_186
*567 FILLER_0_27_188
*568 FILLER_0_27_197
*569 FILLER_0_27_205
*570 FILLER_0_27_209
*571 FILLER_0_27_212
*572 FILLER_0_27_228
*573 FILLER_0_27_263
*574 FILLER_0_27_279
*575 FILLER_0_27_28
*576 FILLER_0_27_282
*577 FILLER_0_27_346
*578 FILLER_0_27_348
*579 FILLER_0_27_60
*580 FILLER_0_27_68
*581 FILLER_0_27_72
*582 FILLER_0_27_88
*583 FILLER_0_27_96
*584 FILLER_0_28_101
*585 FILLER_0_28_107
*586 FILLER_0_28_171
*587 FILLER_0_28_2
*588 FILLER_0_28_204
*589 FILLER_0_28_208
*590 FILLER_0_28_210
*591 FILLER_0_28_219
*592 FILLER_0_28_235
*593 FILLER_0_28_243
*594 FILLER_0_28_252
*595 FILLER_0_28_284
*596 FILLER_0_28_300
*597 FILLER_0_28_308
*598 FILLER_0_28_312
*599 FILLER_0_28_314
*600 FILLER_0_28_317
*601 FILLER_0_28_321
*602 FILLER_0_28_34
*603 FILLER_0_28_37
*604 FILLER_0_29_136
*605 FILLER_0_29_142
*606 FILLER_0_29_151
*607 FILLER_0_29_158
*608 FILLER_0_29_166
*609 FILLER_0_29_178
*610 FILLER_0_29_186
*611 FILLER_0_29_193
*612 FILLER_0_29_2
*613 FILLER_0_29_200
*614 FILLER_0_29_204
*615 FILLER_0_29_208
*616 FILLER_0_29_232
*617 FILLER_0_29_264
*618 FILLER_0_29_282
*619 FILLER_0_29_346
*620 FILLER_0_29_348
*621 FILLER_0_29_66
*622 FILLER_0_29_72
*623 FILLER_0_2_101
*624 FILLER_0_2_107
*625 FILLER_0_2_171
*626 FILLER_0_2_177
*627 FILLER_0_2_2
*628 FILLER_0_2_241
*629 FILLER_0_2_247
*630 FILLER_0_2_311
*631 FILLER_0_2_317
*632 FILLER_0_2_34
*633 FILLER_0_2_37
*634 FILLER_0_30_101
*635 FILLER_0_30_107
*636 FILLER_0_30_111
*637 FILLER_0_30_113
*638 FILLER_0_30_156
*639 FILLER_0_30_160
*640 FILLER_0_30_168
*641 FILLER_0_30_172
*642 FILLER_0_30_174
*643 FILLER_0_30_2
*644 FILLER_0_30_206
*645 FILLER_0_30_237
*646 FILLER_0_30_241
*647 FILLER_0_30_247
*648 FILLER_0_30_311
*649 FILLER_0_30_317
*650 FILLER_0_30_321
*651 FILLER_0_30_34
*652 FILLER_0_30_37
*653 FILLER_0_31_104
*654 FILLER_0_31_108
*655 FILLER_0_31_110
*656 FILLER_0_31_150
*657 FILLER_0_31_180
*658 FILLER_0_31_196
*659 FILLER_0_31_2
*660 FILLER_0_31_204
*661 FILLER_0_31_208
*662 FILLER_0_31_241
*663 FILLER_0_31_245
*664 FILLER_0_31_277
*665 FILLER_0_31_279
*666 FILLER_0_31_282
*667 FILLER_0_31_346
*668 FILLER_0_31_348
*669 FILLER_0_31_66
*670 FILLER_0_31_72
*671 FILLER_0_32_101
*672 FILLER_0_32_107
*673 FILLER_0_32_123
*674 FILLER_0_32_136
*675 FILLER_0_32_144
*676 FILLER_0_32_148
*677 FILLER_0_32_151
*678 FILLER_0_32_167
*679 FILLER_0_32_177
*680 FILLER_0_32_2
*681 FILLER_0_32_241
*682 FILLER_0_32_247
*683 FILLER_0_32_311
*684 FILLER_0_32_317
*685 FILLER_0_32_34
*686 FILLER_0_32_37
*687 FILLER_0_33_136
*688 FILLER_0_33_142
*689 FILLER_0_33_146
*690 FILLER_0_33_2
*691 FILLER_0_33_212
*692 FILLER_0_33_276
*693 FILLER_0_33_282
*694 FILLER_0_33_346
*695 FILLER_0_33_348
*696 FILLER_0_33_66
*697 FILLER_0_33_72
*698 FILLER_0_34_101
*699 FILLER_0_34_107
*700 FILLER_0_34_171
*701 FILLER_0_34_177
*702 FILLER_0_34_2
*703 FILLER_0_34_241
*704 FILLER_0_34_247
*705 FILLER_0_34_311
*706 FILLER_0_34_317
*707 FILLER_0_34_34
*708 FILLER_0_34_37
*709 FILLER_0_35_136
*710 FILLER_0_35_142
*711 FILLER_0_35_2
*712 FILLER_0_35_206
*713 FILLER_0_35_212
*714 FILLER_0_35_276
*715 FILLER_0_35_282
*716 FILLER_0_35_346
*717 FILLER_0_35_348
*718 FILLER_0_35_66
*719 FILLER_0_35_72
*720 FILLER_0_36_101
*721 FILLER_0_36_107
*722 FILLER_0_36_171
*723 FILLER_0_36_177
*724 FILLER_0_36_2
*725 FILLER_0_36_241
*726 FILLER_0_36_247
*727 FILLER_0_36_311
*728 FILLER_0_36_317
*729 FILLER_0_36_34
*730 FILLER_0_36_37
*731 FILLER_0_37_136
*732 FILLER_0_37_142
*733 FILLER_0_37_2
*734 FILLER_0_37_206
*735 FILLER_0_37_212
*736 FILLER_0_37_276
*737 FILLER_0_37_282
*738 FILLER_0_37_346
*739 FILLER_0_37_348
*740 FILLER_0_37_66
*741 FILLER_0_37_72
*742 FILLER_0_38_101
*743 FILLER_0_38_107
*744 FILLER_0_38_171
*745 FILLER_0_38_177
*746 FILLER_0_38_2
*747 FILLER_0_38_241
*748 FILLER_0_38_247
*749 FILLER_0_38_311
*750 FILLER_0_38_317
*751 FILLER_0_38_34
*752 FILLER_0_38_37
*753 FILLER_0_39_136
*754 FILLER_0_39_142
*755 FILLER_0_39_2
*756 FILLER_0_39_206
*757 FILLER_0_39_212
*758 FILLER_0_39_276
*759 FILLER_0_39_282
*760 FILLER_0_39_346
*761 FILLER_0_39_348
*762 FILLER_0_39_66
*763 FILLER_0_39_72
*764 FILLER_0_3_136
*765 FILLER_0_3_142
*766 FILLER_0_3_2
*767 FILLER_0_3_206
*768 FILLER_0_3_212
*769 FILLER_0_3_276
*770 FILLER_0_3_282
*771 FILLER_0_3_346
*772 FILLER_0_3_348
*773 FILLER_0_3_66
*774 FILLER_0_3_72
*775 FILLER_0_40_101
*776 FILLER_0_40_107
*777 FILLER_0_40_171
*778 FILLER_0_40_177
*779 FILLER_0_40_2
*780 FILLER_0_40_241
*781 FILLER_0_40_247
*782 FILLER_0_40_311
*783 FILLER_0_40_317
*784 FILLER_0_40_34
*785 FILLER_0_40_37
*786 FILLER_0_41_136
*787 FILLER_0_41_142
*788 FILLER_0_41_2
*789 FILLER_0_41_206
*790 FILLER_0_41_212
*791 FILLER_0_41_276
*792 FILLER_0_41_282
*793 FILLER_0_41_346
*794 FILLER_0_41_348
*795 FILLER_0_41_66
*796 FILLER_0_41_72
*797 FILLER_0_42_101
*798 FILLER_0_42_107
*799 FILLER_0_42_123
*800 FILLER_0_42_131
*801 FILLER_0_42_159
*802 FILLER_0_42_177
*803 FILLER_0_42_2
*804 FILLER_0_42_241
*805 FILLER_0_42_247
*806 FILLER_0_42_311
*807 FILLER_0_42_317
*808 FILLER_0_42_333
*809 FILLER_0_42_34
*810 FILLER_0_42_341
*811 FILLER_0_42_37
*812 FILLER_0_43_136
*813 FILLER_0_43_168
*814 FILLER_0_43_2
*815 FILLER_0_43_200
*816 FILLER_0_43_208
*817 FILLER_0_43_212
*818 FILLER_0_43_228
*819 FILLER_0_43_255
*820 FILLER_0_43_271
*821 FILLER_0_43_279
*822 FILLER_0_43_282
*823 FILLER_0_43_346
*824 FILLER_0_43_348
*825 FILLER_0_43_66
*826 FILLER_0_43_72
*827 FILLER_0_44_104
*828 FILLER_0_44_138
*829 FILLER_0_44_142
*830 FILLER_0_44_172
*831 FILLER_0_44_174
*832 FILLER_0_44_2
*833 FILLER_0_44_201
*834 FILLER_0_44_203
*835 FILLER_0_44_232
*836 FILLER_0_44_236
*837 FILLER_0_44_240
*838 FILLER_0_44_274
*839 FILLER_0_44_308
*840 FILLER_0_44_342
*841 FILLER_0_44_346
*842 FILLER_0_44_348
*843 FILLER_0_44_36
*844 FILLER_0_44_70
*845 FILLER_0_4_101
*846 FILLER_0_4_107
*847 FILLER_0_4_171
*848 FILLER_0_4_177
*849 FILLER_0_4_2
*850 FILLER_0_4_241
*851 FILLER_0_4_247
*852 FILLER_0_4_311
*853 FILLER_0_4_317
*854 FILLER_0_4_34
*855 FILLER_0_4_37
*856 FILLER_0_5_136
*857 FILLER_0_5_142
*858 FILLER_0_5_2
*859 FILLER_0_5_206
*860 FILLER_0_5_212
*861 FILLER_0_5_276
*862 FILLER_0_5_282
*863 FILLER_0_5_346
*864 FILLER_0_5_348
*865 FILLER_0_5_66
*866 FILLER_0_5_72
*867 FILLER_0_6_101
*868 FILLER_0_6_107
*869 FILLER_0_6_171
*870 FILLER_0_6_177
*871 FILLER_0_6_2
*872 FILLER_0_6_241
*873 FILLER_0_6_247
*874 FILLER_0_6_311
*875 FILLER_0_6_317
*876 FILLER_0_6_34
*877 FILLER_0_6_37
*878 FILLER_0_7_136
*879 FILLER_0_7_142
*880 FILLER_0_7_2
*881 FILLER_0_7_206
*882 FILLER_0_7_212
*883 FILLER_0_7_276
*884 FILLER_0_7_282
*885 FILLER_0_7_314
*886 FILLER_0_7_330
*887 FILLER_0_7_338
*888 FILLER_0_7_342
*889 FILLER_0_7_344
*890 FILLER_0_7_66
*891 FILLER_0_7_72
*892 FILLER_0_8_101
*893 FILLER_0_8_107
*894 FILLER_0_8_171
*895 FILLER_0_8_177
*896 FILLER_0_8_2
*897 FILLER_0_8_241
*898 FILLER_0_8_247
*899 FILLER_0_8_311
*900 FILLER_0_8_317
*901 FILLER_0_8_34
*902 FILLER_0_8_37
*903 FILLER_0_9_136
*904 FILLER_0_9_142
*905 FILLER_0_9_2
*906 FILLER_0_9_206
*907 FILLER_0_9_212
*908 FILLER_0_9_276
*909 FILLER_0_9_282
*910 FILLER_0_9_346
*911 FILLER_0_9_348
*912 FILLER_0_9_66
*913 FILLER_0_9_72
*914 PHY_EDGE_ROW_0_Left_45
*915 PHY_EDGE_ROW_0_Right_0
*916 PHY_EDGE_ROW_10_Left_55
*917 PHY_EDGE_ROW_10_Right_10
*918 PHY_EDGE_ROW_11_Left_56
*919 PHY_EDGE_ROW_11_Right_11
*920 PHY_EDGE_ROW_12_Left_57
*921 PHY_EDGE_ROW_12_Right_12
*922 PHY_EDGE_ROW_13_Left_58
*923 PHY_EDGE_ROW_13_Right_13
*924 PHY_EDGE_ROW_14_Left_59
*925 PHY_EDGE_ROW_14_Right_14
*926 PHY_EDGE_ROW_15_Left_60
*927 PHY_EDGE_ROW_15_Right_15
*928 PHY_EDGE_ROW_16_Left_61
*929 PHY_EDGE_ROW_16_Right_16
*930 PHY_EDGE_ROW_17_Left_62
*931 PHY_EDGE_ROW_17_Right_17
*932 PHY_EDGE_ROW_18_Left_63
*933 PHY_EDGE_ROW_18_Right_18
*934 PHY_EDGE_ROW_19_Left_64
*935 PHY_EDGE_ROW_19_Right_19
*936 PHY_EDGE_ROW_1_Left_46
*937 PHY_EDGE_ROW_1_Right_1
*938 PHY_EDGE_ROW_20_Left_65
*939 PHY_EDGE_ROW_20_Right_20
*940 PHY_EDGE_ROW_21_Left_66
*941 PHY_EDGE_ROW_21_Right_21
*942 PHY_EDGE_ROW_22_Left_67
*943 PHY_EDGE_ROW_22_Right_22
*944 PHY_EDGE_ROW_23_Left_68
*945 PHY_EDGE_ROW_23_Right_23
*946 PHY_EDGE_ROW_24_Left_69
*947 PHY_EDGE_ROW_24_Right_24
*948 PHY_EDGE_ROW_25_Left_70
*949 PHY_EDGE_ROW_25_Right_25
*950 PHY_EDGE_ROW_26_Left_71
*951 PHY_EDGE_ROW_26_Right_26
*952 PHY_EDGE_ROW_27_Left_72
*953 PHY_EDGE_ROW_27_Right_27
*954 PHY_EDGE_ROW_28_Left_73
*955 PHY_EDGE_ROW_28_Right_28
*956 PHY_EDGE_ROW_29_Left_74
*957 PHY_EDGE_ROW_29_Right_29
*958 PHY_EDGE_ROW_2_Left_47
*959 PHY_EDGE_ROW_2_Right_2
*960 PHY_EDGE_ROW_30_Left_75
*961 PHY_EDGE_ROW_30_Right_30
*962 PHY_EDGE_ROW_31_Left_76
*963 PHY_EDGE_ROW_31_Right_31
*964 PHY_EDGE_ROW_32_Left_77
*965 PHY_EDGE_ROW_32_Right_32
*966 PHY_EDGE_ROW_33_Left_78
*967 PHY_EDGE_ROW_33_Right_33
*968 PHY_EDGE_ROW_34_Left_79
*969 PHY_EDGE_ROW_34_Right_34
*970 PHY_EDGE_ROW_35_Left_80
*971 PHY_EDGE_ROW_35_Right_35
*972 PHY_EDGE_ROW_36_Left_81
*973 PHY_EDGE_ROW_36_Right_36
*974 PHY_EDGE_ROW_37_Left_82
*975 PHY_EDGE_ROW_37_Right_37
*976 PHY_EDGE_ROW_38_Left_83
*977 PHY_EDGE_ROW_38_Right_38
*978 PHY_EDGE_ROW_39_Left_84
*979 PHY_EDGE_ROW_39_Right_39
*980 PHY_EDGE_ROW_3_Left_48
*981 PHY_EDGE_ROW_3_Right_3
*982 PHY_EDGE_ROW_40_Left_85
*983 PHY_EDGE_ROW_40_Right_40
*984 PHY_EDGE_ROW_41_Left_86
*985 PHY_EDGE_ROW_41_Right_41
*986 PHY_EDGE_ROW_42_Left_87
*987 PHY_EDGE_ROW_42_Right_42
*988 PHY_EDGE_ROW_43_Left_88
*989 PHY_EDGE_ROW_43_Right_43
*990 PHY_EDGE_ROW_44_Left_89
*991 PHY_EDGE_ROW_44_Right_44
*992 PHY_EDGE_ROW_4_Left_49
*993 PHY_EDGE_ROW_4_Right_4
*994 PHY_EDGE_ROW_5_Left_50
*995 PHY_EDGE_ROW_5_Right_5
*996 PHY_EDGE_ROW_6_Left_51
*997 PHY_EDGE_ROW_6_Right_6
*998 PHY_EDGE_ROW_7_Left_52
*999 PHY_EDGE_ROW_7_Right_7
*1000 PHY_EDGE_ROW_8_Left_53
*1001 PHY_EDGE_ROW_8_Right_8
*1002 PHY_EDGE_ROW_9_Left_54
*1003 PHY_EDGE_ROW_9_Right_9
*1004 TAP_TAPCELL_ROW_0_90
*1005 TAP_TAPCELL_ROW_0_91
*1006 TAP_TAPCELL_ROW_0_92
*1007 TAP_TAPCELL_ROW_0_93
*1008 TAP_TAPCELL_ROW_0_94
*1009 TAP_TAPCELL_ROW_0_95
*1010 TAP_TAPCELL_ROW_0_96
*1011 TAP_TAPCELL_ROW_0_97
*1012 TAP_TAPCELL_ROW_0_98
*1013 TAP_TAPCELL_ROW_0_99
*1014 TAP_TAPCELL_ROW_10_140
*1015 TAP_TAPCELL_ROW_10_141
*1016 TAP_TAPCELL_ROW_10_142
*1017 TAP_TAPCELL_ROW_10_143
*1018 TAP_TAPCELL_ROW_10_144
*1019 TAP_TAPCELL_ROW_11_145
*1020 TAP_TAPCELL_ROW_11_146
*1021 TAP_TAPCELL_ROW_11_147
*1022 TAP_TAPCELL_ROW_11_148
*1023 TAP_TAPCELL_ROW_12_149
*1024 TAP_TAPCELL_ROW_12_150
*1025 TAP_TAPCELL_ROW_12_151
*1026 TAP_TAPCELL_ROW_12_152
*1027 TAP_TAPCELL_ROW_12_153
*1028 TAP_TAPCELL_ROW_13_154
*1029 TAP_TAPCELL_ROW_13_155
*1030 TAP_TAPCELL_ROW_13_156
*1031 TAP_TAPCELL_ROW_13_157
*1032 TAP_TAPCELL_ROW_14_158
*1033 TAP_TAPCELL_ROW_14_159
*1034 TAP_TAPCELL_ROW_14_160
*1035 TAP_TAPCELL_ROW_14_161
*1036 TAP_TAPCELL_ROW_14_162
*1037 TAP_TAPCELL_ROW_15_163
*1038 TAP_TAPCELL_ROW_15_164
*1039 TAP_TAPCELL_ROW_15_165
*1040 TAP_TAPCELL_ROW_15_166
*1041 TAP_TAPCELL_ROW_16_167
*1042 TAP_TAPCELL_ROW_16_168
*1043 TAP_TAPCELL_ROW_16_169
*1044 TAP_TAPCELL_ROW_16_170
*1045 TAP_TAPCELL_ROW_16_171
*1046 TAP_TAPCELL_ROW_17_172
*1047 TAP_TAPCELL_ROW_17_173
*1048 TAP_TAPCELL_ROW_17_174
*1049 TAP_TAPCELL_ROW_17_175
*1050 TAP_TAPCELL_ROW_18_176
*1051 TAP_TAPCELL_ROW_18_177
*1052 TAP_TAPCELL_ROW_18_178
*1053 TAP_TAPCELL_ROW_18_179
*1054 TAP_TAPCELL_ROW_18_180
*1055 TAP_TAPCELL_ROW_19_181
*1056 TAP_TAPCELL_ROW_19_182
*1057 TAP_TAPCELL_ROW_19_183
*1058 TAP_TAPCELL_ROW_19_184
*1059 TAP_TAPCELL_ROW_1_100
*1060 TAP_TAPCELL_ROW_1_101
*1061 TAP_TAPCELL_ROW_1_102
*1062 TAP_TAPCELL_ROW_1_103
*1063 TAP_TAPCELL_ROW_20_185
*1064 TAP_TAPCELL_ROW_20_186
*1065 TAP_TAPCELL_ROW_20_187
*1066 TAP_TAPCELL_ROW_20_188
*1067 TAP_TAPCELL_ROW_20_189
*1068 TAP_TAPCELL_ROW_21_190
*1069 TAP_TAPCELL_ROW_21_191
*1070 TAP_TAPCELL_ROW_21_192
*1071 TAP_TAPCELL_ROW_21_193
*1072 TAP_TAPCELL_ROW_22_194
*1073 TAP_TAPCELL_ROW_22_195
*1074 TAP_TAPCELL_ROW_22_196
*1075 TAP_TAPCELL_ROW_22_197
*1076 TAP_TAPCELL_ROW_22_198
*1077 TAP_TAPCELL_ROW_23_199
*1078 TAP_TAPCELL_ROW_23_200
*1079 TAP_TAPCELL_ROW_23_201
*1080 TAP_TAPCELL_ROW_23_202
*1081 TAP_TAPCELL_ROW_24_203
*1082 TAP_TAPCELL_ROW_24_204
*1083 TAP_TAPCELL_ROW_24_205
*1084 TAP_TAPCELL_ROW_24_206
*1085 TAP_TAPCELL_ROW_24_207
*1086 TAP_TAPCELL_ROW_25_208
*1087 TAP_TAPCELL_ROW_25_209
*1088 TAP_TAPCELL_ROW_25_210
*1089 TAP_TAPCELL_ROW_25_211
*1090 TAP_TAPCELL_ROW_26_212
*1091 TAP_TAPCELL_ROW_26_213
*1092 TAP_TAPCELL_ROW_26_214
*1093 TAP_TAPCELL_ROW_26_215
*1094 TAP_TAPCELL_ROW_26_216
*1095 TAP_TAPCELL_ROW_27_217
*1096 TAP_TAPCELL_ROW_27_218
*1097 TAP_TAPCELL_ROW_27_219
*1098 TAP_TAPCELL_ROW_27_220
*1099 TAP_TAPCELL_ROW_28_221
*1100 TAP_TAPCELL_ROW_28_222
*1101 TAP_TAPCELL_ROW_28_223
*1102 TAP_TAPCELL_ROW_28_224
*1103 TAP_TAPCELL_ROW_28_225
*1104 TAP_TAPCELL_ROW_29_226
*1105 TAP_TAPCELL_ROW_29_227
*1106 TAP_TAPCELL_ROW_29_228
*1107 TAP_TAPCELL_ROW_29_229
*1108 TAP_TAPCELL_ROW_2_104
*1109 TAP_TAPCELL_ROW_2_105
*1110 TAP_TAPCELL_ROW_2_106
*1111 TAP_TAPCELL_ROW_2_107
*1112 TAP_TAPCELL_ROW_2_108
*1113 TAP_TAPCELL_ROW_30_230
*1114 TAP_TAPCELL_ROW_30_231
*1115 TAP_TAPCELL_ROW_30_232
*1116 TAP_TAPCELL_ROW_30_233
*1117 TAP_TAPCELL_ROW_30_234
*1118 TAP_TAPCELL_ROW_31_235
*1119 TAP_TAPCELL_ROW_31_236
*1120 TAP_TAPCELL_ROW_31_237
*1121 TAP_TAPCELL_ROW_31_238
*1122 TAP_TAPCELL_ROW_32_239
*1123 TAP_TAPCELL_ROW_32_240
*1124 TAP_TAPCELL_ROW_32_241
*1125 TAP_TAPCELL_ROW_32_242
*1126 TAP_TAPCELL_ROW_32_243
*1127 TAP_TAPCELL_ROW_33_244
*1128 TAP_TAPCELL_ROW_33_245
*1129 TAP_TAPCELL_ROW_33_246
*1130 TAP_TAPCELL_ROW_33_247
*1131 TAP_TAPCELL_ROW_34_248
*1132 TAP_TAPCELL_ROW_34_249
*1133 TAP_TAPCELL_ROW_34_250
*1134 TAP_TAPCELL_ROW_34_251
*1135 TAP_TAPCELL_ROW_34_252
*1136 TAP_TAPCELL_ROW_35_253
*1137 TAP_TAPCELL_ROW_35_254
*1138 TAP_TAPCELL_ROW_35_255
*1139 TAP_TAPCELL_ROW_35_256
*1140 TAP_TAPCELL_ROW_36_257
*1141 TAP_TAPCELL_ROW_36_258
*1142 TAP_TAPCELL_ROW_36_259
*1143 TAP_TAPCELL_ROW_36_260
*1144 TAP_TAPCELL_ROW_36_261
*1145 TAP_TAPCELL_ROW_37_262
*1146 TAP_TAPCELL_ROW_37_263
*1147 TAP_TAPCELL_ROW_37_264
*1148 TAP_TAPCELL_ROW_37_265
*1149 TAP_TAPCELL_ROW_38_266
*1150 TAP_TAPCELL_ROW_38_267
*1151 TAP_TAPCELL_ROW_38_268
*1152 TAP_TAPCELL_ROW_38_269
*1153 TAP_TAPCELL_ROW_38_270
*1154 TAP_TAPCELL_ROW_39_271
*1155 TAP_TAPCELL_ROW_39_272
*1156 TAP_TAPCELL_ROW_39_273
*1157 TAP_TAPCELL_ROW_39_274
*1158 TAP_TAPCELL_ROW_3_109
*1159 TAP_TAPCELL_ROW_3_110
*1160 TAP_TAPCELL_ROW_3_111
*1161 TAP_TAPCELL_ROW_3_112
*1162 TAP_TAPCELL_ROW_40_275
*1163 TAP_TAPCELL_ROW_40_276
*1164 TAP_TAPCELL_ROW_40_277
*1165 TAP_TAPCELL_ROW_40_278
*1166 TAP_TAPCELL_ROW_40_279
*1167 TAP_TAPCELL_ROW_41_280
*1168 TAP_TAPCELL_ROW_41_281
*1169 TAP_TAPCELL_ROW_41_282
*1170 TAP_TAPCELL_ROW_41_283
*1171 TAP_TAPCELL_ROW_42_284
*1172 TAP_TAPCELL_ROW_42_285
*1173 TAP_TAPCELL_ROW_42_286
*1174 TAP_TAPCELL_ROW_42_287
*1175 TAP_TAPCELL_ROW_42_288
*1176 TAP_TAPCELL_ROW_43_289
*1177 TAP_TAPCELL_ROW_43_290
*1178 TAP_TAPCELL_ROW_43_291
*1179 TAP_TAPCELL_ROW_43_292
*1180 TAP_TAPCELL_ROW_44_293
*1181 TAP_TAPCELL_ROW_44_294
*1182 TAP_TAPCELL_ROW_44_295
*1183 TAP_TAPCELL_ROW_44_296
*1184 TAP_TAPCELL_ROW_44_297
*1185 TAP_TAPCELL_ROW_44_298
*1186 TAP_TAPCELL_ROW_44_299
*1187 TAP_TAPCELL_ROW_44_300
*1188 TAP_TAPCELL_ROW_44_301
*1189 TAP_TAPCELL_ROW_44_302
*1190 TAP_TAPCELL_ROW_4_113
*1191 TAP_TAPCELL_ROW_4_114
*1192 TAP_TAPCELL_ROW_4_115
*1193 TAP_TAPCELL_ROW_4_116
*1194 TAP_TAPCELL_ROW_4_117
*1195 TAP_TAPCELL_ROW_5_118
*1196 TAP_TAPCELL_ROW_5_119
*1197 TAP_TAPCELL_ROW_5_120
*1198 TAP_TAPCELL_ROW_5_121
*1199 TAP_TAPCELL_ROW_6_122
*1200 TAP_TAPCELL_ROW_6_123
*1201 TAP_TAPCELL_ROW_6_124
*1202 TAP_TAPCELL_ROW_6_125
*1203 TAP_TAPCELL_ROW_6_126
*1204 TAP_TAPCELL_ROW_7_127
*1205 TAP_TAPCELL_ROW_7_128
*1206 TAP_TAPCELL_ROW_7_129
*1207 TAP_TAPCELL_ROW_7_130
*1208 TAP_TAPCELL_ROW_8_131
*1209 TAP_TAPCELL_ROW_8_132
*1210 TAP_TAPCELL_ROW_8_133
*1211 TAP_TAPCELL_ROW_8_134
*1212 TAP_TAPCELL_ROW_8_135
*1213 TAP_TAPCELL_ROW_9_136
*1214 TAP_TAPCELL_ROW_9_137
*1215 TAP_TAPCELL_ROW_9_138
*1216 TAP_TAPCELL_ROW_9_139
*1217 _122_
*1218 _123_
*1219 _124_
*1220 _125_
*1221 _126_
*1222 _127_
*1223 _128_
*1224 _129_
*1225 _130_
*1226 _131_
*1227 _132_
*1228 _133_
*1229 _134_
*1230 _135_
*1231 _136_
*1232 _137_
*1233 _138_
*1234 _139_
*1235 _140_
*1236 _141_
*1237 _142_
*1238 _143_
*1239 _144_
*1240 _145_
*1241 _146_
*1242 _147_
*1243 _148_
*1244 _149_
*1245 _150_
*1246 _151_
*1247 _152_
*1248 _153_
*1249 _154_
*1250 _155_
*1251 _156_
*1252 _157_
*1253 _158_
*1254 _159_
*1255 _160_
*1256 _161_
*1257 _162_
*1258 _163_
*1259 _164_
*1260 _165_
*1261 _166_
*1262 _167_
*1263 _168_
*1264 _169_
*1265 _170_
*1266 _171_
*1267 _172_
*1268 _173_
*1269 _174_
*1270 _175_
*1271 _176_
*1272 _177_
*1273 _178_
*1274 _179_
*1275 _180_
*1276 _181_
*1277 _182_
*1278 _183_
*1279 _184_
*1280 _185_
*1281 _186_
*1282 _187_
*1283 _188_
*1284 _189_
*1285 _190_
*1286 _191_
*1287 _192_
*1288 _193_
*1289 _194_
*1290 _195_
*1291 _196_
*1292 _197_
*1293 _198_
*1294 _199_
*1295 _200_
*1296 _201_
*1297 _202_
*1298 _203_
*1299 _204_
*1300 _205_
*1301 _206_
*1302 _207_
*1303 _208_
*1304 _209_
*1305 _210_
*1306 _211_
*1307 _212_
*1308 _213_
*1309 _214_
*1310 _215_
*1311 _216_
*1312 _217_
*1313 _218_
*1314 _219_
*1315 _220_
*1316 _221_
*1317 _222_
*1318 _223_
*1319 _224_
*1320 _225_
*1321 _226_
*1322 _227_
*1323 _228_
*1324 _229_
*1325 _230_
*1326 _231_
*1327 _232_
*1328 _233_
*1329 _234_
*1330 _235_
*1331 _236_
*1332 _237_
*1333 _238_
*1334 _239_
*1335 _240_
*1336 _241_
*1337 _242_
*1338 _243_
*1339 _244_
*1340 _245_
*1341 _246_
*1342 _247_
*1343 _248_
*1344 _249_
*1345 _250_
*1346 _251_
*1347 _252_
*1348 _253_
*1349 _254_
*1350 _255_
*1351 _256_
*1352 _257_
*1353 _258_
*1354 _259_
*1355 _260_
*1356 _261_
*1357 _262_
*1358 _263_
*1359 _264_
*1360 _265_
*1361 _266_
*1362 _267_
*1363 _268_
*1364 _269_
*1365 _272_
*1366 _273_
*1367 clkbuf_0_clk
*1368 clkbuf_1_0__f_clk
*1369 clkbuf_1_1__f_clk
*1370 ita49_25
*1371 ita49_26
*1372 output1
*1373 output10
*1374 output11
*1375 output12
*1376 output13
*1377 output14
*1378 output15
*1379 output16
*1380 output17
*1381 output18
*1382 output19
*1383 output2
*1384 output20
*1385 output21
*1386 output22
*1387 output23
*1388 output24
*1389 output3
*1390 output4
*1391 output5
*1392 output6
*1393 output7
*1394 output8
*1395 output9

*PORTS
clk I
segm[0] O
segm[10] O
segm[11] O
segm[12] O
segm[13] O
segm[1] O
segm[2] O
segm[3] O
segm[4] O
segm[5] O
segm[6] O
segm[7] O
segm[8] O
segm[9] O
sel[0] O
sel[10] O
sel[11] O
sel[1] O
sel[2] O
sel[3] O
sel[4] O
sel[5] O
sel[6] O
sel[7] O
sel[8] O
sel[9] O

*D_NET *1 0.0143387
*CONN
*P clk I
*I *1367:I I *D gf180mcu_fd_sc_mcu7t5v0__clkbuf_16
*I *213:I I *D gf180mcu_fd_sc_mcu7t5v0__antenna
*CAP
1 clk 0.00447893
2 *1367:I 0.000247478
3 *213:I 0
4 *1:13 0.00472641
5 *1367:I *1221:I 0.000120538
6 *1367:I *116:10 0.00018371
7 *1367:I *116:38 0.000861651
8 *1367:I *132:44 8.81341e-06
9 *1367:I *149:16 2.96621e-05
10 *1:13 *1222:I 0.000768906
11 *1:13 *1236:A1 0.000285074
12 *1:13 *1237:A1 1.81888e-05
13 *1:13 *1293:A2 0.000562336
14 *1:13 *1294:A1 4.64721e-05
15 *1:13 *1340:D 0
16 *1:13 *1352:D 4.55055e-05
17 *1:13 *1386:I 0
18 *1:13 *116:10 0.00104082
19 *1:13 *153:22 0
20 *1:13 *180:21 0.000914232
*RES
1 clk *1:13 42.174 
2 *1:13 *213:I 9 
3 *1:13 *1367:I 11.888 
*END

*D_NET *2 0.000381791
*CONN
*P segm[0] O
*I *1370:ZN O *D gf180mcu_fd_sc_mcu7t5v0__tiel
*CAP
1 segm[0] 0.000190895
2 *1370:ZN 0.000190895
*RES
1 *1370:ZN segm[0] 10.406 
*END

*D_NET *3 0.000664236
*CONN
*P segm[10] O
*I *1372:Z O *D gf180mcu_fd_sc_mcu7t5v0__buf_8
*CAP
1 segm[10] 0.000303435
2 *1372:Z 0.000303435
3 segm[10] sel[8] 5.73648e-05
*RES
1 *1372:Z segm[10] 11.09 
*END

*D_NET *4 0.000479643
*CONN
*P segm[11] O
*I *1383:Z O *D gf180mcu_fd_sc_mcu7t5v0__buf_8
*CAP
1 segm[11] 0.000207588
2 *1383:Z 0.000207588
3 segm[11] segm[7] 6.44669e-05
*RES
1 *1383:Z segm[11] 10.71 
*END

*D_NET *5 0.000613781
*CONN
*P segm[12] O