*SPEF "ieee 1481-1999"
*DESIGN "ita5"
*DATE "11:11:11 Fri 11 11, 1111"
*VENDOR "OpenRCX"
*PROGRAM "Parallel Extraction"
*VERSION "1.0"
*DESIGN_FLOW "NAME_SCOPE LOCAL" "PIN_CAP NONE"
*DIVIDER /
*DELIMITER :
*BUS_DELIMITER []
*T_UNIT 1 NS
*C_UNIT 1 PF
*R_UNIT 1 OHM
*L_UNIT 1 HENRY

*NAME_MAP
*1 clk
*2 net24
*3 segm[10]
*4 segm[11]
*5 segm[12]
*6 segm[13]
*7 segm[1]
*8 segm[2]
*9 net25
*10 segm[4]
*11 net26
*12 segm[6]
*13 segm[7]
*14 segm[8]
*15 segm[9]
*16 sel[0]
*17 sel[10]
*18 sel[11]
*19 sel[1]
*20 sel[2]
*21 sel[3]
*22 sel[4]
*23 sel[5]
*24 sel[6]
*25 sel[7]
*26 sel[8]
*27 sel[9]
*30 _000_
*31 _001_
*32 _002_
*33 _003_
*34 _004_
*35 _005_
*36 _006_
*37 _007_
*38 _008_
*39 _009_
*40 _010_
*41 _011_
*42 _012_
*43 _013_
*44 _014_
*45 _015_
*46 _016_
*47 _017_
*48 _018_
*49 _019_
*50 _020_
*51 _021_
*52 _022_
*53 _023_
*54 _024_
*55 _025_
*56 _026_
*57 _027_
*58 _028_
*59 _029_
*60 _030_
*61 _031_
*62 _032_
*63 _033_
*64 _034_
*65 _035_
*66 _036_
*67 _037_
*68 _038_
*69 _039_
*70 _040_
*71 _041_
*72 _042_
*73 _043_
*74 _044_
*75 _045_
*76 _046_
*77 _047_
*78 _048_
*79 _049_
*80 _050_
*81 _051_
*82 _052_
*83 _053_
*84 _054_
*85 _055_
*86 _056_
*87 _057_
*88 _058_
*89 _059_
*90 _060_
*91 _061_
*92 _062_
*93 _063_
*94 _064_
*95 _065_
*96 _066_
*97 _067_
*98 _068_
*99 _069_
*100 _070_
*101 _071_
*102 _072_
*103 _073_
*104 _074_
*105 _075_
*106 _076_
*107 _077_
*108 _078_
*109 _079_
*110 _080_
*111 _081_
*112 _082_
*113 _083_
*114 _084_
*115 _085_
*116 _086_
*117 _087_
*118 _088_
*119 _089_
*120 _090_
*121 _091_
*122 _092_
*123 _093_
*124 _094_
*125 _095_
*126 _096_
*127 _097_
*128 _098_
*129 _099_
*130 _100_
*131 _101_
*132 _102_
*133 _103_
*134 _104_
*135 _105_
*136 clknet_0_clk
*137 clknet_1_0__leaf_clk
*138 clknet_1_1__leaf_clk
*139 dut5\.count\[0\]
*140 dut5\.count\[1\]
*141 dut5\.count\[2\]
*142 dut5\.count\[3\]
*143 net1
*144 net10
*145 net11
*146 net12
*147 net13
*148 net14
*149 net15
*150 net16
*151 net17
*152 net18
*153 net19
*154 net2
*155 net20
*156 net21
*157 net22
*158 net23
*159 net3
*160 net4
*161 net5
*162 net6
*163 net7
*164 net8
*165 net9
*166 ANTENNA__178__B1
*167 ANTENNA__203__A2
*168 ANTENNA__207__C
*169 ANTENNA__210__A2
*170 ANTENNA__212__CLK
*171 ANTENNA__213__CLK
*172 ANTENNA__214__CLK
*173 ANTENNA__215__CLK
*174 ANTENNA__216__CLK
*175 ANTENNA__217__CLK
*176 ANTENNA__218__CLK
*177 ANTENNA__219__CLK
*178 ANTENNA__220__CLK
*179 ANTENNA__221__CLK
*180 ANTENNA__222__CLK
*181 ANTENNA__223__CLK
*182 ANTENNA__224__CLK
*183 ANTENNA__225__CLK
*184 ANTENNA__226__CLK
*185 ANTENNA__227__CLK
*186 ANTENNA__228__CLK
*187 ANTENNA__229__CLK
*188 ANTENNA__230__CLK
*189 ANTENNA__231__CLK
*190 ANTENNA__232__CLK
*191 ANTENNA__233__CLK
*192 ANTENNA__234__CLK
*193 ANTENNA__235__CLK
*194 ANTENNA__236__CLK
*195 ANTENNA_clkbuf_0_clk_I
*196 FILLER_0_0_104
*197 FILLER_0_0_138
*198 FILLER_0_0_154
*199 FILLER_0_0_156
*200 FILLER_0_0_161
*201 FILLER_0_0_169
*202 FILLER_0_0_198
*203 FILLER_0_0_2
*204 FILLER_0_0_202
*205 FILLER_0_0_232
*206 FILLER_0_0_236
*207 FILLER_0_0_240
*208 FILLER_0_0_274
*209 FILLER_0_0_308
*210 FILLER_0_0_342
*211 FILLER_0_0_346
*212 FILLER_0_0_348
*213 FILLER_0_0_36
*214 FILLER_0_0_70
*215 FILLER_0_10_101
*216 FILLER_0_10_107
*217 FILLER_0_10_171
*218 FILLER_0_10_177
*219 FILLER_0_10_2
*220 FILLER_0_10_241
*221 FILLER_0_10_247
*222 FILLER_0_10_311
*223 FILLER_0_10_317
*224 FILLER_0_10_34
*225 FILLER_0_10_37
*226 FILLER_0_11_136
*227 FILLER_0_11_142
*228 FILLER_0_11_158
*229 FILLER_0_11_166
*230 FILLER_0_11_168
*231 FILLER_0_11_198
*232 FILLER_0_11_2
*233 FILLER_0_11_202
*234 FILLER_0_11_212
*235 FILLER_0_11_276
*236 FILLER_0_11_282
*237 FILLER_0_11_346
*238 FILLER_0_11_348
*239 FILLER_0_11_66
*240 FILLER_0_11_72
*241 FILLER_0_12_101
*242 FILLER_0_12_107
*243 FILLER_0_12_139
*244 FILLER_0_12_141
*245 FILLER_0_12_171
*246 FILLER_0_12_177
*247 FILLER_0_12_184
*248 FILLER_0_12_188
*249 FILLER_0_12_190
*250 FILLER_0_12_2
*251 FILLER_0_12_222
*252 FILLER_0_12_238
*253 FILLER_0_12_242
*254 FILLER_0_12_244
*255 FILLER_0_12_247
*256 FILLER_0_12_311
*257 FILLER_0_12_317
*258 FILLER_0_12_34
*259 FILLER_0_12_37
*260 FILLER_0_13_136
*261 FILLER_0_13_142
*262 FILLER_0_13_156
*263 FILLER_0_13_164
*264 FILLER_0_13_178
*265 FILLER_0_13_186
*266 FILLER_0_13_188
*267 FILLER_0_13_195
*268 FILLER_0_13_2
*269 FILLER_0_13_203
*270 FILLER_0_13_207
*271 FILLER_0_13_209
*272 FILLER_0_13_212
*273 FILLER_0_13_276
*274 FILLER_0_13_282
*275 FILLER_0_13_346
*276 FILLER_0_13_348
*277 FILLER_0_13_66
*278 FILLER_0_13_72
*279 FILLER_0_14_101
*280 FILLER_0_14_107
*281 FILLER_0_14_115
*282 FILLER_0_14_119
*283 FILLER_0_14_150
*284 FILLER_0_14_154
*285 FILLER_0_14_170
*286 FILLER_0_14_174
*287 FILLER_0_14_185
*288 FILLER_0_14_193
*289 FILLER_0_14_195
*290 FILLER_0_14_2
*291 FILLER_0_14_212
*292 FILLER_0_14_244
*293 FILLER_0_14_247
*294 FILLER_0_14_311
*295 FILLER_0_14_317
*296 FILLER_0_14_34
*297 FILLER_0_14_37
*298 FILLER_0_15_104
*299 FILLER_0_15_120
*300 FILLER_0_15_124
*301 FILLER_0_15_138
*302 FILLER_0_15_154
*303 FILLER_0_15_158
*304 FILLER_0_15_188
*305 FILLER_0_15_192
*306 FILLER_0_15_2
*307 FILLER_0_15_212
*308 FILLER_0_15_214
*309 FILLER_0_15_244
*310 FILLER_0_15_276
*311 FILLER_0_15_282
*312 FILLER_0_15_346
*313 FILLER_0_15_348
*314 FILLER_0_15_66
*315 FILLER_0_15_72
*316 FILLER_0_16_101
*317 FILLER_0_16_144
*318 FILLER_0_16_161
*319 FILLER_0_16_171
*320 FILLER_0_16_181
*321 FILLER_0_16_2
*322 FILLER_0_16_227
*323 FILLER_0_16_235
*324 FILLER_0_16_242
*325 FILLER_0_16_244
*326 FILLER_0_16_247
*327 FILLER_0_16_311
*328 FILLER_0_16_317
*329 FILLER_0_16_321
*330 FILLER_0_16_34
*331 FILLER_0_16_37
*332 FILLER_0_17_104
*333 FILLER_0_17_120
*334 FILLER_0_17_124
*335 FILLER_0_17_137
*336 FILLER_0_17_139
*337 FILLER_0_17_142
*338 FILLER_0_17_146
*339 FILLER_0_17_151
*340 FILLER_0_17_159
*341 FILLER_0_17_2
*342 FILLER_0_17_212
*343 FILLER_0_17_214
*344 FILLER_0_17_228
*345 FILLER_0_17_260
*346 FILLER_0_17_276
*347 FILLER_0_17_282
*348 FILLER_0_17_314
*349 FILLER_0_17_322
*350 FILLER_0_17_66
*351 FILLER_0_17_72
*352 FILLER_0_18_101
*353 FILLER_0_18_107
*354 FILLER_0_18_116
*355 FILLER_0_18_124
*356 FILLER_0_18_171
*357 FILLER_0_18_183
*358 FILLER_0_18_191
*359 FILLER_0_18_2
*360 FILLER_0_18_213
*361 FILLER_0_18_219
*362 FILLER_0_18_235
*363 FILLER_0_18_243
*364 FILLER_0_18_247
*365 FILLER_0_18_311
*366 FILLER_0_18_317
*367 FILLER_0_18_321
*368 FILLER_0_18_34
*369 FILLER_0_18_37
*370 FILLER_0_18_69
*371 FILLER_0_18_85
*372 FILLER_0_18_93
*373 FILLER_0_19_121
*374 FILLER_0_19_125
*375 FILLER_0_19_129
*376 FILLER_0_19_165
*377 FILLER_0_19_169
*378 FILLER_0_19_171
*379 FILLER_0_19_180
*380 FILLER_0_19_196
*381 FILLER_0_19_204
*382 FILLER_0_19_212
*383 FILLER_0_19_248
*384 FILLER_0_19_28
*385 FILLER_0_19_282
*386 FILLER_0_19_346
*387 FILLER_0_19_348
*388 FILLER_0_19_60
*389 FILLER_0_19_68
*390 FILLER_0_19_72
*391 FILLER_0_19_80
*392 FILLER_0_1_136
*393 FILLER_0_1_142
*394 FILLER_0_1_2
*395 FILLER_0_1_206
*396 FILLER_0_1_238
*397 FILLER_0_1_270
*398 FILLER_0_1_278
*399 FILLER_0_1_282
*400 FILLER_0_1_346
*401 FILLER_0_1_348
*402 FILLER_0_1_66
*403 FILLER_0_1_72
*404 FILLER_0_20_101
*405 FILLER_0_20_107
*406 FILLER_0_20_111
*407 FILLER_0_20_115
*408 FILLER_0_20_117
*409 FILLER_0_20_153
*410 FILLER_0_20_172
*411 FILLER_0_20_174
*412 FILLER_0_20_187
*413 FILLER_0_20_195
*414 FILLER_0_20_199
*415 FILLER_0_20_2
*416 FILLER_0_20_252
*417 FILLER_0_20_256
*418 FILLER_0_20_288
*419 FILLER_0_20_304
*420 FILLER_0_20_312
*421 FILLER_0_20_314
*422 FILLER_0_20_317
*423 FILLER_0_20_321
*424 FILLER_0_20_34
*425 FILLER_0_20_37
*426 FILLER_0_20_69
*427 FILLER_0_20_85
*428 FILLER_0_20_93
*429 FILLER_0_21_121
*430 FILLER_0_21_167
*431 FILLER_0_21_2
*432 FILLER_0_21_208
*433 FILLER_0_21_241
*434 FILLER_0_21_273
*435 FILLER_0_21_277
*436 FILLER_0_21_279
*437 FILLER_0_21_282
*438 FILLER_0_21_346
*439 FILLER_0_21_348
*440 FILLER_0_21_66
*441 FILLER_0_21_72
*442 FILLER_0_21_80
*443 FILLER_0_22_101
*444 FILLER_0_22_107
*445 FILLER_0_22_115
*446 FILLER_0_22_120
*447 FILLER_0_22_128
*448 FILLER_0_22_132
*449 FILLER_0_22_140
*450 FILLER_0_22_144
*451 FILLER_0_22_161
*452 FILLER_0_22_165
*453 FILLER_0_22_167
*454 FILLER_0_22_227
*455 FILLER_0_22_243
*456 FILLER_0_22_247
*457 FILLER_0_22_28
*458 FILLER_0_22_311
*459 FILLER_0_22_317
*460 FILLER_0_22_32
*461 FILLER_0_22_34
*462 FILLER_0_22_37
*463 FILLER_0_23_118
*464 FILLER_0_23_122
*465 FILLER_0_23_138
*466 FILLER_0_23_142
*467 FILLER_0_23_176
*468 FILLER_0_23_192
*469 FILLER_0_23_196
*470 FILLER_0_23_198
*471 FILLER_0_23_2
*472 FILLER_0_23_205
*473 FILLER_0_23_209
*474 FILLER_0_23_217
*475 FILLER_0_23_221
*476 FILLER_0_23_236
*477 FILLER_0_23_268
*478 FILLER_0_23_276
*479 FILLER_0_23_282
*480 FILLER_0_23_314
*481 FILLER_0_23_322
*482 FILLER_0_23_66
*483 FILLER_0_23_72
*484 FILLER_0_23_88
*485 FILLER_0_24_101
*486 FILLER_0_24_113
*487 FILLER_0_24_130
*488 FILLER_0_24_134
*489 FILLER_0_24_150
*490 FILLER_0_24_152
*491 FILLER_0_24_159
*492 FILLER_0_24_163
*493 FILLER_0_24_177
*494 FILLER_0_24_186
*495 FILLER_0_24_190
*496 FILLER_0_24_198
*497 FILLER_0_24_2
*498 FILLER_0_24_230
*499 FILLER_0_24_238
*500 FILLER_0_24_242
*501 FILLER_0_24_244
*502 FILLER_0_24_247
*503 FILLER_0_24_311
*504 FILLER_0_24_317
*505 FILLER_0_24_34
*506 FILLER_0_24_37
*507 FILLER_0_25_123
*508 FILLER_0_25_125
*509 FILLER_0_25_137
*510 FILLER_0_25_139
*511 FILLER_0_25_152
*512 FILLER_0_25_168
*513 FILLER_0_25_202
*514 FILLER_0_25_212
*515 FILLER_0_25_216
*516 FILLER_0_25_218
*517 FILLER_0_25_224
*518 FILLER_0_25_256
*519 FILLER_0_25_272
*520 FILLER_0_25_28
*521 FILLER_0_25_282
*522 FILLER_0_25_346
*523 FILLER_0_25_348
*524 FILLER_0_25_60
*525 FILLER_0_25_68
*526 FILLER_0_25_72
*527 FILLER_0_25_88
*528 FILLER_0_25_92
*529 FILLER_0_26_101
*530 FILLER_0_26_107
*531 FILLER_0_26_131
*532 FILLER_0_26_144
*533 FILLER_0_26_155
*534 FILLER_0_26_163
*535 FILLER_0_26_169
*536 FILLER_0_26_173
*537 FILLER_0_26_177
*538 FILLER_0_26_212
*539 FILLER_0_26_247
*540 FILLER_0_26_28
*541 FILLER_0_26_311
*542 FILLER_0_26_317
*543 FILLER_0_26_32
*544 FILLER_0_26_321
*545 FILLER_0_26_34
*546 FILLER_0_26_37
*547 FILLER_0_27_104
*548 FILLER_0_27_120
*549 FILLER_0_27_134
*550 FILLER_0_27_138
*551 FILLER_0_27_142
*552 FILLER_0_27_2
*553 FILLER_0_27_212
*554 FILLER_0_27_246
*555 FILLER_0_27_278
*556 FILLER_0_27_282
*557 FILLER_0_27_314
*558 FILLER_0_27_322
*559 FILLER_0_27_66
*560 FILLER_0_27_72
*561 FILLER_0_28_101
*562 FILLER_0_28_107
*563 FILLER_0_28_140
*564 FILLER_0_28_142
*565 FILLER_0_28_172
*566 FILLER_0_28_174
*567 FILLER_0_28_177
*568 FILLER_0_28_181
*569 FILLER_0_28_197
*570 FILLER_0_28_205
*571 FILLER_0_28_209
*572 FILLER_0_28_211
*573 FILLER_0_28_218
*574 FILLER_0_28_222
*575 FILLER_0_28_224
*576 FILLER_0_28_238
*577 FILLER_0_28_242
*578 FILLER_0_28_244
*579 FILLER_0_28_247
*580 FILLER_0_28_28
*581 FILLER_0_28_311
*582 FILLER_0_28_317
*583 FILLER_0_28_32
*584 FILLER_0_28_321
*585 FILLER_0_28_34
*586 FILLER_0_28_37
*587 FILLER_0_29_104
*588 FILLER_0_29_120
*589 FILLER_0_29_124
*590 FILLER_0_29_126
*591 FILLER_0_29_131
*592 FILLER_0_29_139
*593 FILLER_0_29_151
*594 FILLER_0_29_167
*595 FILLER_0_29_175
*596 FILLER_0_29_177
*597 FILLER_0_29_187
*598 FILLER_0_29_189
*599 FILLER_0_29_2
*600 FILLER_0_29_209
*601 FILLER_0_29_212
*602 FILLER_0_29_276
*603 FILLER_0_29_282
*604 FILLER_0_29_346
*605 FILLER_0_29_348
*606 FILLER_0_29_66
*607 FILLER_0_29_72
*608 FILLER_0_2_101
*609 FILLER_0_2_107
*610 FILLER_0_2_171
*611 FILLER_0_2_177
*612 FILLER_0_2_2
*613 FILLER_0_2_209
*614 FILLER_0_2_243
*615 FILLER_0_2_247
*616 FILLER_0_2_311
*617 FILLER_0_2_317
*618 FILLER_0_2_34
*619 FILLER_0_2_37
*620 FILLER_0_30_101
*621 FILLER_0_30_107
*622 FILLER_0_30_111
*623 FILLER_0_30_141
*624 FILLER_0_30_145
*625 FILLER_0_30_161
*626 FILLER_0_30_181
*627 FILLER_0_30_183
*628 FILLER_0_30_2
*629 FILLER_0_30_222
*630 FILLER_0_30_238
*631 FILLER_0_30_242
*632 FILLER_0_30_244
*633 FILLER_0_30_247
*634 FILLER_0_30_311
*635 FILLER_0_30_317
*636 FILLER_0_30_34
*637 FILLER_0_30_37
*638 FILLER_0_31_136
*639 FILLER_0_31_142
*640 FILLER_0_31_150
*641 FILLER_0_31_2
*642 FILLER_0_31_212
*643 FILLER_0_31_276
*644 FILLER_0_31_282
*645 FILLER_0_31_346
*646 FILLER_0_31_348
*647 FILLER_0_31_66
*648 FILLER_0_31_72
*649 FILLER_0_32_101
*650 FILLER_0_32_107
*651 FILLER_0_32_139
*652 FILLER_0_32_143
*653 FILLER_0_32_145
*654 FILLER_0_32_177
*655 FILLER_0_32_183
*656 FILLER_0_32_187
*657 FILLER_0_32_2
*658 FILLER_0_32_219
*659 FILLER_0_32_235
*660 FILLER_0_32_243
*661 FILLER_0_32_247
*662 FILLER_0_32_311
*663 FILLER_0_32_317
*664 FILLER_0_32_34
*665 FILLER_0_32_37
*666 FILLER_0_33_136
*667 FILLER_0_33_142
*668 FILLER_0_33_174
*669 FILLER_0_33_177
*670 FILLER_0_33_2
*671 FILLER_0_33_209
*672 FILLER_0_33_212
*673 FILLER_0_33_276
*674 FILLER_0_33_282
*675 FILLER_0_33_346
*676 FILLER_0_33_348
*677 FILLER_0_33_66
*678 FILLER_0_33_72
*679 FILLER_0_34_101
*680 FILLER_0_34_107
*681 FILLER_0_34_171
*682 FILLER_0_34_177
*683 FILLER_0_34_2
*684 FILLER_0_34_241
*685 FILLER_0_34_247
*686 FILLER_0_34_311
*687 FILLER_0_34_317
*688 FILLER_0_34_34
*689 FILLER_0_34_37
*690 FILLER_0_35_136
*691 FILLER_0_35_142
*692 FILLER_0_35_2
*693 FILLER_0_35_206
*694 FILLER_0_35_212
*695 FILLER_0_35_276
*696 FILLER_0_35_282
*697 FILLER_0_35_346
*698 FILLER_0_35_348
*699 FILLER_0_35_66
*700 FILLER_0_35_72
*701 FILLER_0_36_101
*702 FILLER_0_36_107
*703 FILLER_0_36_171
*704 FILLER_0_36_177
*705 FILLER_0_36_2
*706 FILLER_0_36_241
*707 FILLER_0_36_247
*708 FILLER_0_36_311
*709 FILLER_0_36_317
*710 FILLER_0_36_34
*711 FILLER_0_36_37
*712 FILLER_0_37_136
*713 FILLER_0_37_142
*714 FILLER_0_37_2
*715 FILLER_0_37_206
*716 FILLER_0_37_212
*717 FILLER_0_37_276
*718 FILLER_0_37_282
*719 FILLER_0_37_346
*720 FILLER_0_37_348
*721 FILLER_0_37_66
*722 FILLER_0_37_72
*723 FILLER_0_38_101
*724 FILLER_0_38_107
*725 FILLER_0_38_171
*726 FILLER_0_38_177
*727 FILLER_0_38_2
*728 FILLER_0_38_241
*729 FILLER_0_38_247
*730 FILLER_0_38_311
*731 FILLER_0_38_317
*732 FILLER_0_38_34
*733 FILLER_0_38_37
*734 FILLER_0_39_136
*735 FILLER_0_39_142
*736 FILLER_0_39_2
*737 FILLER_0_39_206
*738 FILLER_0_39_212
*739 FILLER_0_39_276
*740 FILLER_0_39_282
*741 FILLER_0_39_346
*742 FILLER_0_39_348
*743 FILLER_0_39_66
*744 FILLER_0_39_72
*745 FILLER_0_3_136
*746 FILLER_0_3_142
*747 FILLER_0_3_2
*748 FILLER_0_3_206
*749 FILLER_0_3_212
*750 FILLER_0_3_276
*751 FILLER_0_3_282
*752 FILLER_0_3_346
*753 FILLER_0_3_348
*754 FILLER_0_3_66
*755 FILLER_0_3_72
*756 FILLER_0_40_101
*757 FILLER_0_40_107
*758 FILLER_0_40_171
*759 FILLER_0_40_177
*760 FILLER_0_40_2
*761 FILLER_0_40_241
*762 FILLER_0_40_247
*763 FILLER_0_40_311
*764 FILLER_0_40_317
*765 FILLER_0_40_34
*766 FILLER_0_40_37
*767 FILLER_0_41_136
*768 FILLER_0_41_142
*769 FILLER_0_41_2
*770 FILLER_0_41_206
*771 FILLER_0_41_212
*772 FILLER_0_41_276
*773 FILLER_0_41_282
*774 FILLER_0_41_346
*775 FILLER_0_41_348
*776 FILLER_0_41_66
*777 FILLER_0_41_72
*778 FILLER_0_42_101
*779 FILLER_0_42_107
*780 FILLER_0_42_171
*781 FILLER_0_42_2
*782 FILLER_0_42_203
*783 FILLER_0_42_235
*784 FILLER_0_42_243
*785 FILLER_0_42_247
*786 FILLER_0_42_311
*787 FILLER_0_42_317
*788 FILLER_0_42_34
*789 FILLER_0_42_37
*790 FILLER_0_43_136
*791 FILLER_0_43_142
*792 FILLER_0_43_174
*793 FILLER_0_43_201
*794 FILLER_0_43_209
*795 FILLER_0_43_212
*796 FILLER_0_43_216
*797 FILLER_0_43_243
*798 FILLER_0_43_275
*799 FILLER_0_43_279
*800 FILLER_0_43_282
*801 FILLER_0_43_346
*802 FILLER_0_43_348
*803 FILLER_0_43_6
*804 FILLER_0_43_72
*805 FILLER_0_44_104
*806 FILLER_0_44_138
*807 FILLER_0_44_165
*808 FILLER_0_44_169
*809 FILLER_0_44_172
*810 FILLER_0_44_176
*811 FILLER_0_44_2
*812 FILLER_0_44_206
*813 FILLER_0_44_210
*814 FILLER_0_44_237
*815 FILLER_0_44_244
*816 FILLER_0_44_260
*817 FILLER_0_44_268
*818 FILLER_0_44_274
*819 FILLER_0_44_308
*820 FILLER_0_44_342
*821 FILLER_0_44_346
*822 FILLER_0_44_348
*823 FILLER_0_44_36
*824 FILLER_0_44_70
*825 FILLER_0_4_101
*826 FILLER_0_4_107
*827 FILLER_0_4_171
*828 FILLER_0_4_177
*829 FILLER_0_4_2
*830 FILLER_0_4_241
*831 FILLER_0_4_247
*832 FILLER_0_4_311
*833 FILLER_0_4_317
*834 FILLER_0_4_34
*835 FILLER_0_4_37
*836 FILLER_0_5_136
*837 FILLER_0_5_142
*838 FILLER_0_5_2
*839 FILLER_0_5_206
*840 FILLER_0_5_212
*841 FILLER_0_5_276
*842 FILLER_0_5_282
*843 FILLER_0_5_346
*844 FILLER_0_5_348
*845 FILLER_0_5_66
*846 FILLER_0_5_72
*847 FILLER_0_6_101
*848 FILLER_0_6_107
*849 FILLER_0_6_171
*850 FILLER_0_6_177
*851 FILLER_0_6_2
*852 FILLER_0_6_241
*853 FILLER_0_6_247
*854 FILLER_0_6_311
*855 FILLER_0_6_317
*856 FILLER_0_6_34
*857 FILLER_0_6_37
*858 FILLER_0_7_136
*859 FILLER_0_7_142
*860 FILLER_0_7_2
*861 FILLER_0_7_206
*862 FILLER_0_7_212
*863 FILLER_0_7_276
*864 FILLER_0_7_282
*865 FILLER_0_7_346
*866 FILLER_0_7_348
*867 FILLER_0_7_66
*868 FILLER_0_7_72
*869 FILLER_0_8_101
*870 FILLER_0_8_107
*871 FILLER_0_8_171
*872 FILLER_0_8_177
*873 FILLER_0_8_2
*874 FILLER_0_8_241
*875 FILLER_0_8_247
*876 FILLER_0_8_311
*877 FILLER_0_8_317
*878 FILLER_0_8_34
*879 FILLER_0_8_37
*880 FILLER_0_9_136
*881 FILLER_0_9_142
*882 FILLER_0_9_2
*883 FILLER_0_9_206
*884 FILLER_0_9_212
*885 FILLER_0_9_276
*886 FILLER_0_9_282
*887 FILLER_0_9_346
*888 FILLER_0_9_348
*889 FILLER_0_9_66
*890 FILLER_0_9_72
*891 PHY_EDGE_ROW_0_Left_45
*892 PHY_EDGE_ROW_0_Right_0
*893 PHY_EDGE_ROW_10_Left_55
*894 PHY_EDGE_ROW_10_Right_10
*895 PHY_EDGE_ROW_11_Left_56
*896 PHY_EDGE_ROW_11_Right_11
*897 PHY_EDGE_ROW_12_Left_57
*898 PHY_EDGE_ROW_12_Right_12
*899 PHY_EDGE_ROW_13_Left_58
*900 PHY_EDGE_ROW_13_Right_13
*901 PHY_EDGE_ROW_14_Left_59
*902 PHY_EDGE_ROW_14_Right_14
*903 PHY_EDGE_ROW_15_Left_60
*904 PHY_EDGE_ROW_15_Right_15
*905 PHY_EDGE_ROW_16_Left_61
*906 PHY_EDGE_ROW_16_Right_16
*907 PHY_EDGE_ROW_17_Left_62
*908 PHY_EDGE_ROW_17_Right_17
*909 PHY_EDGE_ROW_18_Left_63
*910 PHY_EDGE_ROW_18_Right_18
*911 PHY_EDGE_ROW_19_Left_64
*912 PHY_EDGE_ROW_19_Right_19
*913 PHY_EDGE_ROW_1_Left_46
*914 PHY_EDGE_ROW_1_Right_1
*915 PHY_EDGE_ROW_20_Left_65
*916 PHY_EDGE_ROW_20_Right_20
*917 PHY_EDGE_ROW_21_Left_66
*918 PHY_EDGE_ROW_21_Right_21
*919 PHY_EDGE_ROW_22_Left_67
*920 PHY_EDGE_ROW_22_Right_22
*921 PHY_EDGE_ROW_23_Left_68
*922 PHY_EDGE_ROW_23_Right_23
*923 PHY_EDGE_ROW_24_Left_69
*924 PHY_EDGE_ROW_24_Right_24
*925 PHY_EDGE_ROW_25_Left_70
*926 PHY_EDGE_ROW_25_Right_25
*927 PHY_EDGE_ROW_26_Left_71
*928 PHY_EDGE_ROW_26_Right_26
*929 PHY_EDGE_ROW_27_Left_72
*930 PHY_EDGE_ROW_27_Right_27
*931 PHY_EDGE_ROW_28_Left_73
*932 PHY_EDGE_ROW_28_Right_28
*933 PHY_EDGE_ROW_29_Left_74
*934 PHY_EDGE_ROW_29_Right_29
*935 PHY_EDGE_ROW_2_Left_47
*936 PHY_EDGE_ROW_2_Right_2
*937 PHY_EDGE_ROW_30_Left_75
*938 PHY_EDGE_ROW_30_Right_30
*939 PHY_EDGE_ROW_31_Left_76
*940 PHY_EDGE_ROW_31_Right_31
*941 PHY_EDGE_ROW_32_Left_77
*942 PHY_EDGE_ROW_32_Right_32
*943 PHY_EDGE_ROW_33_Left_78
*944 PHY_EDGE_ROW_33_Right_33
*945 PHY_EDGE_ROW_34_Left_79
*946 PHY_EDGE_ROW_34_Right_34
*947 PHY_EDGE_ROW_35_Left_80
*948 PHY_EDGE_ROW_35_Right_35
*949 PHY_EDGE_ROW_36_Left_81
*950 PHY_EDGE_ROW_36_Right_36
*951 PHY_EDGE_ROW_37_Left_82
*952 PHY_EDGE_ROW_37_Right_37
*953 PHY_EDGE_ROW_38_Left_83
*954 PHY_EDGE_ROW_38_Right_38
*955 PHY_EDGE_ROW_39_Left_84
*956 PHY_EDGE_ROW_39_Right_39
*957 PHY_EDGE_ROW_3_Left_48
*958 PHY_EDGE_ROW_3_Right_3
*959 PHY_EDGE_ROW_40_Left_85
*960 PHY_EDGE_ROW_40_Right_40
*961 PHY_EDGE_ROW_41_Left_86
*962 PHY_EDGE_ROW_41_Right_41
*963 PHY_EDGE_ROW_42_Left_87
*964 PHY_EDGE_ROW_42_Right_42
*965 PHY_EDGE_ROW_43_Left_88
*966 PHY_EDGE_ROW_43_Right_43
*967 PHY_EDGE_ROW_44_Left_89
*968 PHY_EDGE_ROW_44_Right_44
*969 PHY_EDGE_ROW_4_Left_49
*970 PHY_EDGE_ROW_4_Right_4
*971 PHY_EDGE_ROW_5_Left_50
*972 PHY_EDGE_ROW_5_Right_5
*973 PHY_EDGE_ROW_6_Left_51
*974 PHY_EDGE_ROW_6_Right_6
*975 PHY_EDGE_ROW_7_Left_52
*976 PHY_EDGE_ROW_7_Right_7
*977 PHY_EDGE_ROW_8_Left_53
*978 PHY_EDGE_ROW_8_Right_8
*979 PHY_EDGE_ROW_9_Left_54
*980 PHY_EDGE_ROW_9_Right_9
*981 TAP_TAPCELL_ROW_0_90
*982 TAP_TAPCELL_ROW_0_91
*983 TAP_TAPCELL_ROW_0_92
*984 TAP_TAPCELL_ROW_0_93
*985 TAP_TAPCELL_ROW_0_94
*986 TAP_TAPCELL_ROW_0_95
*987 TAP_TAPCELL_ROW_0_96
*988 TAP_TAPCELL_ROW_0_97
*989 TAP_TAPCELL_ROW_0_98
*990 TAP_TAPCELL_ROW_0_99
*991 TAP_TAPCELL_ROW_10_140
*992 TAP_TAPCELL_ROW_10_141
*993 TAP_TAPCELL_ROW_10_142
*994 TAP_TAPCELL_ROW_10_143
*995 TAP_TAPCELL_ROW_10_144
*996 TAP_TAPCELL_ROW_11_145
*997 TAP_TAPCELL_ROW_11_146
*998 TAP_TAPCELL_ROW_11_147
*999 TAP_TAPCELL_ROW_11_148
*1000 TAP_TAPCELL_ROW_12_149
*1001 TAP_TAPCELL_ROW_12_150
*1002 TAP_TAPCELL_ROW_12_151
*1003 TAP_TAPCELL_ROW_12_152
*1004 TAP_TAPCELL_ROW_12_153
*1005 TAP_TAPCELL_ROW_13_154
*1006 TAP_TAPCELL_ROW_13_155
*1007 TAP_TAPCELL_ROW_13_156
*1008 TAP_TAPCELL_ROW_13_157
*1009 TAP_TAPCELL_ROW_14_158
*1010 TAP_TAPCELL_ROW_14_159
*1011 TAP_TAPCELL_ROW_14_160
*1012 TAP_TAPCELL_ROW_14_161
*1013 TAP_TAPCELL_ROW_14_162
*1014 TAP_TAPCELL_ROW_15_163
*1015 TAP_TAPCELL_ROW_15_164
*1016 TAP_TAPCELL_ROW_15_165
*1017 TAP_TAPCELL_ROW_15_166
*1018 TAP_TAPCELL_ROW_16_167
*1019 TAP_TAPCELL_ROW_16_168
*1020 TAP_TAPCELL_ROW_16_169
*1021 TAP_TAPCELL_ROW_16_170
*1022 TAP_TAPCELL_ROW_16_171
*1023 TAP_TAPCELL_ROW_17_172
*1024 TAP_TAPCELL_ROW_17_173
*1025 TAP_TAPCELL_ROW_17_174
*1026 TAP_TAPCELL_ROW_17_175
*1027 TAP_TAPCELL_ROW_18_176
*1028 TAP_TAPCELL_ROW_18_177
*1029 TAP_TAPCELL_ROW_18_178
*1030 TAP_TAPCELL_ROW_18_179
*1031 TAP_TAPCELL_ROW_18_180
*1032 TAP_TAPCELL_ROW_19_181
*1033 TAP_TAPCELL_ROW_19_182
*1034 TAP_TAPCELL_ROW_19_183
*1035 TAP_TAPCELL_ROW_19_184
*1036 TAP_TAPCELL_ROW_1_100
*1037 TAP_TAPCELL_ROW_1_101
*1038 TAP_TAPCELL_ROW_1_102
*1039 TAP_TAPCELL_ROW_1_103
*1040 TAP_TAPCELL_ROW_20_185
*1041 TAP_TAPCELL_ROW_20_186
*1042 TAP_TAPCELL_ROW_20_187
*1043 TAP_TAPCELL_ROW_20_188
*1044 TAP_TAPCELL_ROW_20_189
*1045 TAP_TAPCELL_ROW_21_190
*1046 TAP_TAPCELL_ROW_21_191
*1047 TAP_TAPCELL_ROW_21_192
*1048 TAP_TAPCELL_ROW_21_193
*1049 TAP_TAPCELL_ROW_22_194
*1050 TAP_TAPCELL_ROW_22_195
*1051 TAP_TAPCELL_ROW_22_196
*1052 TAP_TAPCELL_ROW_22_197
*1053 TAP_TAPCELL_ROW_22_198
*1054 TAP_TAPCELL_ROW_23_199
*1055 TAP_TAPCELL_ROW_23_200
*1056 TAP_TAPCELL_ROW_23_201
*1057 TAP_TAPCELL_ROW_23_202
*1058 TAP_TAPCELL_ROW_24_203
*1059 TAP_TAPCELL_ROW_24_204
*1060 TAP_TAPCELL_ROW_24_205
*1061 TAP_TAPCELL_ROW_24_206
*1062 TAP_TAPCELL_ROW_24_207
*1063 TAP_TAPCELL_ROW_25_208
*1064 TAP_TAPCELL_ROW_25_209
*1065 TAP_TAPCELL_ROW_25_210
*1066 TAP_TAPCELL_ROW_25_211
*1067 TAP_TAPCELL_ROW_26_212
*1068 TAP_TAPCELL_ROW_26_213
*1069 TAP_TAPCELL_ROW_26_214
*1070 TAP_TAPCELL_ROW_26_215
*1071 TAP_TAPCELL_ROW_26_216
*1072 TAP_TAPCELL_ROW_27_217
*1073 TAP_TAPCELL_ROW_27_218
*1074 TAP_TAPCELL_ROW_27_219
*1075 TAP_TAPCELL_ROW_27_220
*1076 TAP_TAPCELL_ROW_28_221
*1077 TAP_TAPCELL_ROW_28_222
*1078 TAP_TAPCELL_ROW_28_223
*1079 TAP_TAPCELL_ROW_28_224
*1080 TAP_TAPCELL_ROW_28_225
*1081 TAP_TAPCELL_ROW_29_226
*1082 TAP_TAPCELL_ROW_29_227
*1083 TAP_TAPCELL_ROW_29_228
*1084 TAP_TAPCELL_ROW_29_229
*1085 TAP_TAPCELL_ROW_2_104
*1086 TAP_TAPCELL_ROW_2_105
*1087 TAP_TAPCELL_ROW_2_106
*1088 TAP_TAPCELL_ROW_2_107
*1089 TAP_TAPCELL_ROW_2_108
*1090 TAP_TAPCELL_ROW_30_230
*1091 TAP_TAPCELL_ROW_30_231
*1092 TAP_TAPCELL_ROW_30_232
*1093 TAP_TAPCELL_ROW_30_233
*1094 TAP_TAPCELL_ROW_30_234
*1095 TAP_TAPCELL_ROW_31_235
*1096 TAP_TAPCELL_ROW_31_236
*1097 TAP_TAPCELL_ROW_31_237
*1098 TAP_TAPCELL_ROW_31_238
*1099 TAP_TAPCELL_ROW_32_239
*1100 TAP_TAPCELL_ROW_32_240
*1101 TAP_TAPCELL_ROW_32_241
*1102 TAP_TAPCELL_ROW_32_242
*1103 TAP_TAPCELL_ROW_32_243
*1104 TAP_TAPCELL_ROW_33_244
*1105 TAP_TAPCELL_ROW_33_245
*1106 TAP_TAPCELL_ROW_33_246
*1107 TAP_TAPCELL_ROW_33_247
*1108 TAP_TAPCELL_ROW_34_248
*1109 TAP_TAPCELL_ROW_34_249
*1110 TAP_TAPCELL_ROW_34_250
*1111 TAP_TAPCELL_ROW_34_251
*1112 TAP_TAPCELL_ROW_34_252
*1113 TAP_TAPCELL_ROW_35_253
*1114 TAP_TAPCELL_ROW_35_254
*1115 TAP_TAPCELL_ROW_35_255
*1116 TAP_TAPCELL_ROW_35_256
*1117 TAP_TAPCELL_ROW_36_257
*1118 TAP_TAPCELL_ROW_36_258
*1119 TAP_TAPCELL_ROW_36_259
*1120 TAP_TAPCELL_ROW_36_260
*1121 TAP_TAPCELL_ROW_36_261
*1122 TAP_TAPCELL_ROW_37_262
*1123 TAP_TAPCELL_ROW_37_263
*1124 TAP_TAPCELL_ROW_37_264
*1125 TAP_TAPCELL_ROW_37_265
*1126 TAP_TAPCELL_ROW_38_266
*1127 TAP_TAPCELL_ROW_38_267
*1128 TAP_TAPCELL_ROW_38_268
*1129 TAP_TAPCELL_ROW_38_269
*1130 TAP_TAPCELL_ROW_38_270
*1131 TAP_TAPCELL_ROW_39_271
*1132 TAP_TAPCELL_ROW_39_272
*1133 TAP_TAPCELL_ROW_39_273
*1134 TAP_TAPCELL_ROW_39_274
*1135 TAP_TAPCELL_ROW_3_109
*1136 TAP_TAPCELL_ROW_3_110
*1137 TAP_TAPCELL_ROW_3_111
*1138 TAP_TAPCELL_ROW_3_112
*1139 TAP_TAPCELL_ROW_40_275
*1140 TAP_TAPCELL_ROW_40_276
*1141 TAP_TAPCELL_ROW_40_277
*1142 TAP_TAPCELL_ROW_40_278
*1143 TAP_TAPCELL_ROW_40_279
*1144 TAP_TAPCELL_ROW_41_280
*1145 TAP_TAPCELL_ROW_41_281
*1146 TAP_TAPCELL_ROW_41_282
*1147 TAP_TAPCELL_ROW_41_283
*1148 TAP_TAPCELL_ROW_42_284
*1149 TAP_TAPCELL_ROW_42_285
*1150 TAP_TAPCELL_ROW_42_286
*1151 TAP_TAPCELL_ROW_42_287
*1152 TAP_TAPCELL_ROW_42_288
*1153 TAP_TAPCELL_ROW_43_289
*1154 TAP_TAPCELL_ROW_43_290
*1155 TAP_TAPCELL_ROW_43_291
*1156 TAP_TAPCELL_ROW_43_292
*1157 TAP_TAPCELL_ROW_44_293
*1158 TAP_TAPCELL_ROW_44_294
*1159 TAP_TAPCELL_ROW_44_295
*1160 TAP_TAPCELL_ROW_44_296
*1161 TAP_TAPCELL_ROW_44_297
*1162 TAP_TAPCELL_ROW_44_298
*1163 TAP_TAPCELL_ROW_44_299
*1164 TAP_TAPCELL_ROW_44_300
*1165 TAP_TAPCELL_ROW_44_301
*1166 TAP_TAPCELL_ROW_44_302
*1167 TAP_TAPCELL_ROW_4_113
*1168 TAP_TAPCELL_ROW_4_114
*1169 TAP_TAPCELL_ROW_4_115
*1170 TAP_TAPCELL_ROW_4_116
*1171 TAP_TAPCELL_ROW_4_117
*1172 TAP_TAPCELL_ROW_5_118
*1173 TAP_TAPCELL_ROW_5_119
*1174 TAP_TAPCELL_ROW_5_120
*1175 TAP_TAPCELL_ROW_5_121
*1176 TAP_TAPCELL_ROW_6_122
*1177 TAP_TAPCELL_ROW_6_123
*1178 TAP_TAPCELL_ROW_6_124
*1179 TAP_TAPCELL_ROW_6_125
*1180 TAP_TAPCELL_ROW_6_126
*1181 TAP_TAPCELL_ROW_7_127
*1182 TAP_TAPCELL_ROW_7_128
*1183 TAP_TAPCELL_ROW_7_129
*1184 TAP_TAPCELL_ROW_7_130
*1185 TAP_TAPCELL_ROW_8_131
*1186 TAP_TAPCELL_ROW_8_132
*1187 TAP_TAPCELL_ROW_8_133
*1188 TAP_TAPCELL_ROW_8_134
*1189 TAP_TAPCELL_ROW_8_135
*1190 TAP_TAPCELL_ROW_9_136
*1191 TAP_TAPCELL_ROW_9_137
*1192 TAP_TAPCELL_ROW_9_138
*1193 TAP_TAPCELL_ROW_9_139
*1194 _106_
*1195 _107_
*1196 _108_
*1197 _109_
*1198 _110_
*1199 _111_
*1200 _112_
*1201 _113_
*1202 _114_
*1203 _115_
*1204 _116_
*1205 _117_
*1206 _118_
*1207 _119_
*1208 _120_
*1209 _121_
*1210 _122_
*1211 _123_
*1212 _124_
*1213 _125_
*1214 _126_
*1215 _127_
*1216 _128_
*1217 _129_
*1218 _130_
*1219 _131_
*1220 _132_
*1221 _133_
*1222 _134_
*1223 _135_
*1224 _136_
*1225 _137_
*1226 _138_
*1227 _139_
*1228 _140_
*1229 _141_
*1230 _142_
*1231 _143_
*1232 _144_
*1233 _145_
*1234 _146_
*1235 _147_
*1236 _148_
*1237 _149_
*1238 _150_
*1239 _151_
*1240 _152_
*1241 _153_
*1242 _154_
*1243 _155_
*1244 _156_
*1245 _157_
*1246 _158_
*1247 _159_
*1248 _160_
*1249 _161_
*1250 _162_
*1251 _163_
*1252 _164_
*1253 _165_
*1254 _166_
*1255 _167_
*1256 _168_
*1257 _169_
*1258 _170_
*1259 _171_
*1260 _172_
*1261 _173_
*1262 _174_
*1263 _175_
*1264 _176_
*1265 _177_
*1266 _178_
*1267 _179_
*1268 _180_
*1269 _181_
*1270 _182_
*1271 _183_
*1272 _184_
*1273 _185_
*1274 _186_
*1275 _187_
*1276 _188_
*1277 _189_
*1278 _190_
*1279 _191_
*1280 _192_
*1281 _193_
*1282 _194_
*1283 _195_
*1284 _196_
*1285 _197_
*1286 _198_
*1287 _199_
*1288 _200_
*1289 _201_
*1290 _202_
*1291 _203_
*1292 _204_
*1293 _205_
*1294 _206_
*1295 _207_
*1296 _208_
*1297 _209_
*1298 _210_
*1299 _211_
*1300 _212_
*1301 _213_
*1302 _214_
*1303 _215_
*1304 _216_
*1305 _217_
*1306 _218_
*1307 _219_
*1308 _220_
*1309 _221_
*1310 _222_
*1311 _223_
*1312 _224_
*1313 _225_
*1314 _226_
*1315 _227_
*1316 _228_
*1317 _229_
*1318 _230_
*1319 _231_
*1320 _232_
*1321 _233_
*1322 _234_
*1323 _235_
*1324 _236_
*1325 _240_
*1326 _241_
*1327 clkbuf_0_clk
*1328 clkbuf_1_0__f_clk
*1329 clkbuf_1_1__f_clk
*1330 ita5_24
*1331 ita5_25
*1332 ita5_26
*1333 output1
*1334 output10
*1335 output11
*1336 output12
*1337 output13
*1338 output14
*1339 output15
*1340 output16
*1341 output17
*1342 output18
*1343 output19
*1344 output2
*1345 output20
*1346 output21
*1347 output22
*1348 output23
*1349 output3
*1350 output4
*1351 output5
*1352 output6
*1353 output7
*1354 output8
*1355 output9

*PORTS
clk I
segm[0] O
segm[10] O
segm[11] O
segm[12] O
segm[13] O
segm[1] O
segm[2] O
segm[3] O
segm[4] O
segm[5] O
segm[6] O
segm[7] O
segm[8] O
segm[9] O
sel[0] O
sel[10] O
sel[11] O
sel[1] O
sel[2] O
sel[3] O
sel[4] O
sel[5] O
sel[6] O
sel[7] O
sel[8] O
sel[9] O

*D_NET *1 0.0180706
*CONN
*P clk I
*I *1327:I I *D gf180mcu_fd_sc_mcu7t5v0__clkbuf_16
*I *195:I I *D gf180mcu_fd_sc_mcu7t5v0__antenna
*CAP
1 clk 0.0026019
2 *1327:I 0.000231901
3 *195:I 0
4 *1:13 0.00308357
5 *1:11 0.00545356
6 *1327:I *1238:A2 0
7 *1327:I *1246:A1 0
8 *1327:I *118:17 0
9 *1327:I *132:8 0.000152316
10 *1:11 *1334:I 3.4596e-05
11 *1:13 *1195:I 4.54968e-05
12 *1:13 *1213:I 0.000677639
13 *1:13 *1233:A1 0.000424607
14 *1:13 *1238:A2 0
15 *1:13 *1287:I 0.00270567
16 *1:13 *1288:A1 4.33349e-05
17 *1:13 *1288:A2 0
18 *1:13 *1289:A2 0
19 *1:13 *1334:I 0.0025567
20 *1:13 *128:10 0
21 *1:13 *129:32 5.93467e-05
*RES
1 clk *1:11 28.292 
2 *1:11 *1:13 30.056 
3 *1:13 *195:I 9 
4 *1:13 *1327:I 10.976 
*END

*D_NET *2 0.00132986
*CONN
*P segm[0] O
*I *1330:ZN O *D gf180mcu_fd_sc_mcu7t5v0__tiel
*CAP
1 segm[0] 0.000664931
2 *1330:ZN 0.000664931
*RES
1 *1330:ZN segm[0] 9.856 
*END

*D_NET *3 0.000514696
*CONN
*P segm[10] O
*I *1333:Z O *D gf180mcu_fd_sc_mcu7t5v0__buf_8
*CAP
1 segm[10] 0.000221342
2 *1333:Z 0.000221342
3 segm[10] sel[10] 7.20128e-05
*RES
1 *1333:Z segm[10] 11.34 
*END

*D_NET *4 0.00101161
*CONN
*P segm[11] O
*I *1344:Z O *D gf180mcu_fd_sc_mcu7t5v0__buf_8
*CAP
1 segm[11] 0.000475478
2 *1344:Z 0.000475478
3 segm[11] sel[7] 6.0656e-05
*RES
1 *1344:Z segm[11] 12.692 
*END

*D_NET *5 0.000887412
*CONN
*P segm[12] O
*I *1349:Z O *D gf180mcu_fd_sc_mcu7t5v0__buf_8
*CAP
1 segm[12] 0.000443706
2 *1349:Z 0.000443706
*RES
1 *1349:Z segm[12] 12.276 
*END

*D_NET *6 0.00342588
*CONN
*P segm[13] O
*I *1350:Z O *D gf180mcu_fd_sc_mcu7t5v0__buf_8
*CAP
1 segm[13] 0.00146251
2 *1350:Z 0.00146251
3 segm[13] sel[4] 0.000175051
4 segm[13] *1342:I 0
5 segm[13] *1350:I 0.000325803
*RES
1 *1350:Z segm[13] 26.136 
*END

*D_NET *7 0.00102249
*CONN
*P segm[1] O
*I *1351:Z O *D gf180mcu_fd_sc_mcu7t5v0__buf_8
*CAP
1 segm[1] 0.000459452
2 *1351:Z 0.000459452
3 segm[1] sel[2] 0.00010359