*SPEF "ieee 1481-1999"
*DESIGN "ita51"
*DATE "11:11:11 Fri 11 11, 1111"
*VENDOR "OpenRCX"
*PROGRAM "Parallel Extraction"
*VERSION "1.0"
*DESIGN_FLOW "NAME_SCOPE LOCAL" "PIN_CAP NONE"
*DIVIDER /
*DELIMITER :
*BUS_DELIMITER []
*T_UNIT 1 NS
*C_UNIT 1 PF
*R_UNIT 1 OHM
*L_UNIT 1 HENRY

*NAME_MAP
*1 clk
*2 net24
*3 segm[10]
*4 segm[11]
*5 segm[12]
*6 segm[13]
*7 segm[1]
*8 segm[2]
*9 net25
*10 segm[4]
*11 net26
*12 segm[6]
*13 segm[7]
*14 segm[8]
*15 segm[9]
*16 sel[0]
*17 sel[10]
*18 sel[11]
*19 sel[1]
*20 sel[2]
*21 sel[3]
*22 sel[4]
*23 sel[5]
*24 sel[6]
*25 sel[7]
*26 sel[8]
*27 sel[9]
*30 _000_
*31 _001_
*32 _002_
*33 _003_
*34 _004_
*35 _005_
*36 _006_
*37 _007_
*38 _008_
*39 _009_
*40 _010_
*41 _011_
*42 _012_
*43 _013_
*44 _014_
*45 _015_
*46 _016_
*47 _017_
*48 _018_
*49 _019_
*50 _020_
*51 _021_
*52 _022_
*53 _023_
*54 _024_
*55 _025_
*56 _026_
*57 _027_
*58 _028_
*59 _029_
*60 _030_
*61 _031_
*62 _032_
*63 _033_
*64 _034_
*65 _035_
*66 _036_
*67 _037_
*68 _038_
*69 _039_
*70 _040_
*71 _041_
*72 _042_
*73 _043_
*74 _044_
*75 _045_
*76 _046_
*77 _047_
*78 _048_
*79 _049_
*80 _050_
*81 _051_
*82 _052_
*83 _053_
*84 _054_
*85 _055_
*86 _056_
*87 _057_
*88 _058_
*89 _059_
*90 _060_
*91 _061_
*92 _062_
*93 _063_
*94 _064_
*95 _065_
*96 _066_
*97 _067_
*98 _068_
*99 _069_
*100 _070_
*101 _071_
*102 _072_
*103 _073_
*104 _074_
*105 _075_
*106 _076_
*107 _077_
*108 _078_
*109 _079_
*110 _080_
*111 _081_
*112 _082_
*113 _083_
*114 _084_
*115 _085_
*116 _086_
*117 _087_
*118 _088_
*119 _089_
*120 _090_
*121 _091_
*122 _092_
*123 _093_
*124 _094_
*125 _095_
*126 _096_
*127 clknet_0_clk
*128 clknet_1_0__leaf_clk
*129 clknet_1_1__leaf_clk
*130 dut51\.count\[0\]
*131 dut51\.count\[1\]
*132 dut51\.count\[2\]
*133 dut51\.count\[3\]
*134 net1
*135 net10
*136 net11
*137 net12
*138 net13
*139 net14
*140 net15
*141 net16
*142 net17
*143 net18
*144 net19
*145 net2
*146 net20
*147 net21
*148 net22
*149 net23
*150 net3
*151 net4
*152 net5
*153 net6
*154 net7
*155 net8
*156 net9
*157 ANTENNA__194__CLK
*158 ANTENNA__195__CLK
*159 ANTENNA__196__CLK
*160 ANTENNA__197__CLK
*161 ANTENNA__198__CLK
*162 ANTENNA__199__CLK
*163 ANTENNA__200__CLK
*164 ANTENNA__201__CLK
*165 ANTENNA__202__CLK
*166 ANTENNA__203__CLK
*167 ANTENNA__204__CLK
*168 ANTENNA__205__CLK
*169 ANTENNA__206__CLK
*170 ANTENNA__207__CLK
*171 ANTENNA__208__CLK
*172 ANTENNA__209__CLK
*173 ANTENNA__210__CLK
*174 ANTENNA__211__CLK
*175 ANTENNA__212__CLK
*176 ANTENNA__213__CLK
*177 ANTENNA__214__CLK
*178 ANTENNA__215__CLK
*179 ANTENNA__216__CLK
*180 ANTENNA__217__CLK
*181 ANTENNA_clkbuf_0_clk_I
*182 FILLER_0_0_104
*183 FILLER_0_0_138
*184 FILLER_0_0_165
*185 FILLER_0_0_169
*186 FILLER_0_0_172
*187 FILLER_0_0_176
*188 FILLER_0_0_2
*189 FILLER_0_0_232
*190 FILLER_0_0_236
*191 FILLER_0_0_240
*192 FILLER_0_0_274
*193 FILLER_0_0_308
*194 FILLER_0_0_342
*195 FILLER_0_0_346
*196 FILLER_0_0_348
*197 FILLER_0_0_36
*198 FILLER_0_0_70
*199 FILLER_0_10_101
*200 FILLER_0_10_107
*201 FILLER_0_10_171
*202 FILLER_0_10_177
*203 FILLER_0_10_2
*204 FILLER_0_10_241
*205 FILLER_0_10_247
*206 FILLER_0_10_311
*207 FILLER_0_10_317
*208 FILLER_0_10_34
*209 FILLER_0_10_37
*210 FILLER_0_11_136
*211 FILLER_0_11_142
*212 FILLER_0_11_158
*213 FILLER_0_11_160
*214 FILLER_0_11_190
*215 FILLER_0_11_194
*216 FILLER_0_11_2
*217 FILLER_0_11_212
*218 FILLER_0_11_276
*219 FILLER_0_11_282
*220 FILLER_0_11_346
*221 FILLER_0_11_348
*222 FILLER_0_11_66
*223 FILLER_0_11_72
*224 FILLER_0_12_101
*225 FILLER_0_12_107
*226 FILLER_0_12_171
*227 FILLER_0_12_177
*228 FILLER_0_12_2
*229 FILLER_0_12_241
*230 FILLER_0_12_247
*231 FILLER_0_12_311
*232 FILLER_0_12_317
*233 FILLER_0_12_34
*234 FILLER_0_12_37
*235 FILLER_0_13_104
*236 FILLER_0_13_108
*237 FILLER_0_13_138
*238 FILLER_0_13_142
*239 FILLER_0_13_146
*240 FILLER_0_13_148
*241 FILLER_0_13_154
*242 FILLER_0_13_162
*243 FILLER_0_13_166
*244 FILLER_0_13_197
*245 FILLER_0_13_2
*246 FILLER_0_13_201
*247 FILLER_0_13_209
*248 FILLER_0_13_212
*249 FILLER_0_13_276
*250 FILLER_0_13_282
*251 FILLER_0_13_346
*252 FILLER_0_13_348
*253 FILLER_0_13_66
*254 FILLER_0_13_72
*255 FILLER_0_14_101
*256 FILLER_0_14_107
*257 FILLER_0_14_115
*258 FILLER_0_14_119
*259 FILLER_0_14_121
*260 FILLER_0_14_127
*261 FILLER_0_14_129
*262 FILLER_0_14_159
*263 FILLER_0_14_163
*264 FILLER_0_14_167
*265 FILLER_0_14_169
*266 FILLER_0_14_190
*267 FILLER_0_14_194
*268 FILLER_0_14_2
*269 FILLER_0_14_227
*270 FILLER_0_14_243
*271 FILLER_0_14_247
*272 FILLER_0_14_311
*273 FILLER_0_14_317
*274 FILLER_0_14_34
*275 FILLER_0_14_37
*276 FILLER_0_15_114
*277 FILLER_0_15_118
*278 FILLER_0_15_126
*279 FILLER_0_15_138
*280 FILLER_0_15_142
*281 FILLER_0_15_146
*282 FILLER_0_15_165
*283 FILLER_0_15_169
*284 FILLER_0_15_171
*285 FILLER_0_15_185
*286 FILLER_0_15_2
*287 FILLER_0_15_201
*288 FILLER_0_15_209
*289 FILLER_0_15_212
*290 FILLER_0_15_276
*291 FILLER_0_15_282
*292 FILLER_0_15_346
*293 FILLER_0_15_348
*294 FILLER_0_15_66
*295 FILLER_0_15_72
*296 FILLER_0_16_101
*297 FILLER_0_16_112
*298 FILLER_0_16_144
*299 FILLER_0_16_160
*300 FILLER_0_16_166
*301 FILLER_0_16_174
*302 FILLER_0_16_183
*303 FILLER_0_16_199
*304 FILLER_0_16_203
*305 FILLER_0_16_217
*306 FILLER_0_16_233
*307 FILLER_0_16_241
*308 FILLER_0_16_247
*309 FILLER_0_16_28
*310 FILLER_0_16_311
*311 FILLER_0_16_317
*312 FILLER_0_16_32
*313 FILLER_0_16_34
*314 FILLER_0_16_37
*315 FILLER_0_17_104
*316 FILLER_0_17_112
*317 FILLER_0_17_132
*318 FILLER_0_17_138
*319 FILLER_0_17_142
*320 FILLER_0_17_2
*321 FILLER_0_17_204
*322 FILLER_0_17_208
*323 FILLER_0_17_218
*324 FILLER_0_17_250
*325 FILLER_0_17_266
*326 FILLER_0_17_274
*327 FILLER_0_17_278
*328 FILLER_0_17_282
*329 FILLER_0_17_314
*330 FILLER_0_17_322
*331 FILLER_0_17_66
*332 FILLER_0_17_72
*333 FILLER_0_18_101
*334 FILLER_0_18_136
*335 FILLER_0_18_138
*336 FILLER_0_18_151
*337 FILLER_0_18_155
*338 FILLER_0_18_157
*339 FILLER_0_18_173
*340 FILLER_0_18_193
*341 FILLER_0_18_2
*342 FILLER_0_18_240
*343 FILLER_0_18_244
*344 FILLER_0_18_247
*345 FILLER_0_18_311
*346 FILLER_0_18_317
*347 FILLER_0_18_321
*348 FILLER_0_18_34
*349 FILLER_0_18_37
*350 FILLER_0_19_115
*351 FILLER_0_19_119
*352 FILLER_0_19_126
*353 FILLER_0_19_137
*354 FILLER_0_19_139
*355 FILLER_0_19_148
*356 FILLER_0_19_158
*357 FILLER_0_19_196
*358 FILLER_0_19_2
*359 FILLER_0_19_206
*360 FILLER_0_19_212
*361 FILLER_0_19_276
*362 FILLER_0_19_282
*363 FILLER_0_19_346
*364 FILLER_0_19_348
*365 FILLER_0_19_66
*366 FILLER_0_19_72
*367 FILLER_0_19_80
*368 FILLER_0_19_84
*369 FILLER_0_1_136
*370 FILLER_0_1_142
*371 FILLER_0_1_150
*372 FILLER_0_1_154
*373 FILLER_0_1_156
*374 FILLER_0_1_183
*375 FILLER_0_1_199
*376 FILLER_0_1_2
*377 FILLER_0_1_207
*378 FILLER_0_1_209
*379 FILLER_0_1_238
*380 FILLER_0_1_270
*381 FILLER_0_1_278
*382 FILLER_0_1_282
*383 FILLER_0_1_346
*384 FILLER_0_1_348
*385 FILLER_0_1_66
*386 FILLER_0_1_72
*387 FILLER_0_20_101
*388 FILLER_0_20_107
*389 FILLER_0_20_123
*390 FILLER_0_20_125
*391 FILLER_0_20_135
*392 FILLER_0_20_143
*393 FILLER_0_20_177
*394 FILLER_0_20_181
*395 FILLER_0_20_183
*396 FILLER_0_20_2
*397 FILLER_0_20_203
*398 FILLER_0_20_205
*399 FILLER_0_20_235
*400 FILLER_0_20_243
*401 FILLER_0_20_247
*402 FILLER_0_20_311
*403 FILLER_0_20_317
*404 FILLER_0_20_34
*405 FILLER_0_20_37
*406 FILLER_0_21_114
*407 FILLER_0_21_118
*408 FILLER_0_21_142
*409 FILLER_0_21_144
*410 FILLER_0_21_2
*411 FILLER_0_21_203
*412 FILLER_0_21_207
*413 FILLER_0_21_209
*414 FILLER_0_21_212
*415 FILLER_0_21_276
*416 FILLER_0_21_282
*417 FILLER_0_21_314
*418 FILLER_0_21_322
*419 FILLER_0_21_66
*420 FILLER_0_21_72
*421 FILLER_0_21_80
*422 FILLER_0_21_84
*423 FILLER_0_22_107
*424 FILLER_0_22_109
*425 FILLER_0_22_123
*426 FILLER_0_22_139
*427 FILLER_0_22_143
*428 FILLER_0_22_154
*429 FILLER_0_22_177
*430 FILLER_0_22_208
*431 FILLER_0_22_216
*432 FILLER_0_22_233
*433 FILLER_0_22_241
*434 FILLER_0_22_247
*435 FILLER_0_22_28
*436 FILLER_0_22_311
*437 FILLER_0_22_317
*438 FILLER_0_22_32
*439 FILLER_0_22_34
*440 FILLER_0_22_37
*441 FILLER_0_22_69
*442 FILLER_0_22_73
*443 FILLER_0_22_75
*444 FILLER_0_23_100
*445 FILLER_0_23_112
*446 FILLER_0_23_116
*447 FILLER_0_23_132
*448 FILLER_0_23_138
*449 FILLER_0_23_142
*450 FILLER_0_23_153
*451 FILLER_0_23_155
*452 FILLER_0_23_175
*453 FILLER_0_23_183
*454 FILLER_0_23_187
*455 FILLER_0_23_206
*456 FILLER_0_23_212
*457 FILLER_0_23_214
*458 FILLER_0_23_244
*459 FILLER_0_23_276
*460 FILLER_0_23_28
*461 FILLER_0_23_282
*462 FILLER_0_23_314
*463 FILLER_0_23_322
*464 FILLER_0_23_60
*465 FILLER_0_23_68
*466 FILLER_0_23_72
*467 FILLER_0_23_88
*468 FILLER_0_23_96
*469 FILLER_0_24_101
*470 FILLER_0_24_107
*471 FILLER_0_24_123
*472 FILLER_0_24_133
*473 FILLER_0_24_174
*474 FILLER_0_24_2
*475 FILLER_0_24_210
*476 FILLER_0_24_214
*477 FILLER_0_24_231
*478 FILLER_0_24_239
*479 FILLER_0_24_243
*480 FILLER_0_24_247
*481 FILLER_0_24_311
*482 FILLER_0_24_317
*483 FILLER_0_24_321
*484 FILLER_0_24_34
*485 FILLER_0_24_37
*486 FILLER_0_25_104
*487 FILLER_0_25_135
*488 FILLER_0_25_156
*489 FILLER_0_25_2
*490 FILLER_0_25_207
*491 FILLER_0_25_209
*492 FILLER_0_25_212
*493 FILLER_0_25_251
*494 FILLER_0_25_267
*495 FILLER_0_25_275
*496 FILLER_0_25_279
*497 FILLER_0_25_282
*498 FILLER_0_25_314
*499 FILLER_0_25_322
*500 FILLER_0_25_66
*501 FILLER_0_25_72
*502 FILLER_0_26_101
*503 FILLER_0_26_117
*504 FILLER_0_26_125
*505 FILLER_0_26_127
*506 FILLER_0_26_163
*507 FILLER_0_26_167
*508 FILLER_0_26_188
*509 FILLER_0_26_2
*510 FILLER_0_26_220
*511 FILLER_0_26_224
*512 FILLER_0_26_231
*513 FILLER_0_26_239
*514 FILLER_0_26_243
*515 FILLER_0_26_247
*516 FILLER_0_26_311
*517 FILLER_0_26_317
*518 FILLER_0_26_321
*519 FILLER_0_26_34
*520 FILLER_0_26_37
*521 FILLER_0_27_122
*522 FILLER_0_27_126
*523 FILLER_0_27_134
*524 FILLER_0_27_138
*525 FILLER_0_27_142
*526 FILLER_0_27_174
*527 FILLER_0_27_178
*528 FILLER_0_27_184
*529 FILLER_0_27_200
*530 FILLER_0_27_208
*531 FILLER_0_27_212
*532 FILLER_0_27_276
*533 FILLER_0_27_28
*534 FILLER_0_27_282
*535 FILLER_0_27_346
*536 FILLER_0_27_348
*537 FILLER_0_27_60
*538 FILLER_0_27_68
*539 FILLER_0_27_72
*540 FILLER_0_27_80
*541 FILLER_0_27_84
*542 FILLER_0_27_86
*543 FILLER_0_28_101
*544 FILLER_0_28_107
*545 FILLER_0_28_171
*546 FILLER_0_28_2
*547 FILLER_0_28_206
*548 FILLER_0_28_210
*549 FILLER_0_28_214
*550 FILLER_0_28_216
*551 FILLER_0_28_227
*552 FILLER_0_28_243
*553 FILLER_0_28_247
*554 FILLER_0_28_311
*555 FILLER_0_28_317
*556 FILLER_0_28_34
*557 FILLER_0_28_37
*558 FILLER_0_29_136
*559 FILLER_0_29_142
*560 FILLER_0_29_146
*561 FILLER_0_29_162
*562 FILLER_0_29_170
*563 FILLER_0_29_178
*564 FILLER_0_29_182
*565 FILLER_0_29_198
*566 FILLER_0_29_2
*567 FILLER_0_29_202
*568 FILLER_0_29_241
*569 FILLER_0_29_273
*570 FILLER_0_29_277
*571 FILLER_0_29_279
*572 FILLER_0_29_282
*573 FILLER_0_29_346
*574 FILLER_0_29_348
*575 FILLER_0_29_66
*576 FILLER_0_29_72
*577 FILLER_0_2_101
*578 FILLER_0_2_107
*579 FILLER_0_2_171
*580 FILLER_0_2_177
*581 FILLER_0_2_2
*582 FILLER_0_2_241
*583 FILLER_0_2_247
*584 FILLER_0_2_311
*585 FILLER_0_2_317
*586 FILLER_0_2_34
*587 FILLER_0_2_37
*588 FILLER_0_30_101
*589 FILLER_0_30_107
*590 FILLER_0_30_173
*591 FILLER_0_30_177
*592 FILLER_0_30_183
*593 FILLER_0_30_189
*594 FILLER_0_30_197
*595 FILLER_0_30_2
*596 FILLER_0_30_230
*597 FILLER_0_30_238
*598 FILLER_0_30_242
*599 FILLER_0_30_244
*600 FILLER_0_30_247
*601 FILLER_0_30_311
*602 FILLER_0_30_317
*603 FILLER_0_30_321
*604 FILLER_0_30_34
*605 FILLER_0_30_37
*606 FILLER_0_31_136
*607 FILLER_0_31_142
*608 FILLER_0_31_150
*609 FILLER_0_31_156
*610 FILLER_0_31_160
*611 FILLER_0_31_197
*612 FILLER_0_31_2
*613 FILLER_0_31_201
*614 FILLER_0_31_209
*615 FILLER_0_31_212
*616 FILLER_0_31_216
*617 FILLER_0_31_222
*618 FILLER_0_31_254
*619 FILLER_0_31_270
*620 FILLER_0_31_278
*621 FILLER_0_31_282
*622 FILLER_0_31_346
*623 FILLER_0_31_348
*624 FILLER_0_31_66
*625 FILLER_0_31_72
*626 FILLER_0_32_101
*627 FILLER_0_32_107
*628 FILLER_0_32_139
*629 FILLER_0_32_155
*630 FILLER_0_32_163
*631 FILLER_0_32_172
*632 FILLER_0_32_174
*633 FILLER_0_32_177
*634 FILLER_0_32_2
*635 FILLER_0_32_241
*636 FILLER_0_32_247
*637 FILLER_0_32_311
*638 FILLER_0_32_317
*639 FILLER_0_32_34
*640 FILLER_0_32_37
*641 FILLER_0_33_136
*642 FILLER_0_33_142
*643 FILLER_0_33_2
*644 FILLER_0_33_206
*645 FILLER_0_33_212
*646 FILLER_0_33_276
*647 FILLER_0_33_282
*648 FILLER_0_33_346
*649 FILLER_0_33_348
*650 FILLER_0_33_66
*651 FILLER_0_33_72
*652 FILLER_0_34_101
*653 FILLER_0_34_107
*654 FILLER_0_34_171
*655 FILLER_0_34_177
*656 FILLER_0_34_2
*657 FILLER_0_34_241
*658 FILLER_0_34_247
*659 FILLER_0_34_311
*660 FILLER_0_34_317
*661 FILLER_0_34_34
*662 FILLER_0_34_37
*663 FILLER_0_35_136
*664 FILLER_0_35_142
*665 FILLER_0_35_2
*666 FILLER_0_35_206
*667 FILLER_0_35_212
*668 FILLER_0_35_276
*669 FILLER_0_35_282
*670 FILLER_0_35_346
*671 FILLER_0_35_348
*672 FILLER_0_35_66
*673 FILLER_0_35_72
*674 FILLER_0_36_101
*675 FILLER_0_36_107
*676 FILLER_0_36_171
*677 FILLER_0_36_177
*678 FILLER_0_36_2
*679 FILLER_0_36_241
*680 FILLER_0_36_247
*681 FILLER_0_36_311
*682 FILLER_0_36_317
*683 FILLER_0_36_34
*684 FILLER_0_36_37
*685 FILLER_0_37_136
*686 FILLER_0_37_142
*687 FILLER_0_37_2
*688 FILLER_0_37_206
*689 FILLER_0_37_212
*690 FILLER_0_37_276
*691 FILLER_0_37_282
*692 FILLER_0_37_346
*693 FILLER_0_37_348
*694 FILLER_0_37_66
*695 FILLER_0_37_72
*696 FILLER_0_38_101
*697 FILLER_0_38_107
*698 FILLER_0_38_171
*699 FILLER_0_38_177
*700 FILLER_0_38_2
*701 FILLER_0_38_241
*702 FILLER_0_38_247
*703 FILLER_0_38_311
*704 FILLER_0_38_317
*705 FILLER_0_38_34
*706 FILLER_0_38_37
*707 FILLER_0_39_136
*708 FILLER_0_39_142
*709 FILLER_0_39_2
*710 FILLER_0_39_206
*711 FILLER_0_39_212
*712 FILLER_0_39_276
*713 FILLER_0_39_282
*714 FILLER_0_39_346
*715 FILLER_0_39_348
*716 FILLER_0_39_66
*717 FILLER_0_39_72
*718 FILLER_0_3_136
*719 FILLER_0_3_142
*720 FILLER_0_3_2
*721 FILLER_0_3_206
*722 FILLER_0_3_212
*723 FILLER_0_3_276
*724 FILLER_0_3_282
*725 FILLER_0_3_346
*726 FILLER_0_3_348
*727 FILLER_0_3_66
*728 FILLER_0_3_72
*729 FILLER_0_40_101
*730 FILLER_0_40_107
*731 FILLER_0_40_171
*732 FILLER_0_40_177
*733 FILLER_0_40_2
*734 FILLER_0_40_241
*735 FILLER_0_40_247
*736 FILLER_0_40_311
*737 FILLER_0_40_317
*738 FILLER_0_40_34
*739 FILLER_0_40_37
*740 FILLER_0_41_136
*741 FILLER_0_41_142
*742 FILLER_0_41_2
*743 FILLER_0_41_206
*744 FILLER_0_41_212
*745 FILLER_0_41_276
*746 FILLER_0_41_282
*747 FILLER_0_41_346
*748 FILLER_0_41_348
*749 FILLER_0_41_66
*750 FILLER_0_41_72
*751 FILLER_0_42_101
*752 FILLER_0_42_107
*753 FILLER_0_42_171
*754 FILLER_0_42_203
*755 FILLER_0_42_22
*756 FILLER_0_42_235
*757 FILLER_0_42_243
*758 FILLER_0_42_247
*759 FILLER_0_42_30
*760 FILLER_0_42_311
*761 FILLER_0_42_317
*762 FILLER_0_42_34
*763 FILLER_0_42_37
*764 FILLER_0_42_6
*765 FILLER_0_43_136
*766 FILLER_0_43_142
*767 FILLER_0_43_174
*768 FILLER_0_43_2
*769 FILLER_0_43_201
*770 FILLER_0_43_209
*771 FILLER_0_43_212
*772 FILLER_0_43_228
*773 FILLER_0_43_255
*774 FILLER_0_43_271
*775 FILLER_0_43_279
*776 FILLER_0_43_282
*777 FILLER_0_43_346
*778 FILLER_0_43_348
*779 FILLER_0_43_66
*780 FILLER_0_43_72
*781 FILLER_0_44_101
*782 FILLER_0_44_104
*783 FILLER_0_44_138
*784 FILLER_0_44_142
*785 FILLER_0_44_172
*786 FILLER_0_44_176
*787 FILLER_0_44_2
*788 FILLER_0_44_232
*789 FILLER_0_44_236
*790 FILLER_0_44_240
*791 FILLER_0_44_274
*792 FILLER_0_44_290
*793 FILLER_0_44_298
*794 FILLER_0_44_300
*795 FILLER_0_44_305
*796 FILLER_0_44_308
*797 FILLER_0_44_342
*798 FILLER_0_44_346
*799 FILLER_0_44_348
*800 FILLER_0_44_36
*801 FILLER_0_44_70
*802 FILLER_0_44_86
*803 FILLER_0_44_90
*804 FILLER_0_44_95
*805 FILLER_0_44_99
*806 FILLER_0_4_101
*807 FILLER_0_4_107
*808 FILLER_0_4_171
*809 FILLER_0_4_177
*810 FILLER_0_4_2
*811 FILLER_0_4_241
*812 FILLER_0_4_247
*813 FILLER_0_4_311
*814 FILLER_0_4_317
*815 FILLER_0_4_34
*816 FILLER_0_4_37
*817 FILLER_0_5_136
*818 FILLER_0_5_142
*819 FILLER_0_5_2
*820 FILLER_0_5_206
*821 FILLER_0_5_212
*822 FILLER_0_5_276
*823 FILLER_0_5_282
*824 FILLER_0_5_346
*825 FILLER_0_5_348
*826 FILLER_0_5_66
*827 FILLER_0_5_72
*828 FILLER_0_6_101
*829 FILLER_0_6_107
*830 FILLER_0_6_171
*831 FILLER_0_6_177
*832 FILLER_0_6_2
*833 FILLER_0_6_241
*834 FILLER_0_6_247
*835 FILLER_0_6_311
*836 FILLER_0_6_317
*837 FILLER_0_6_34
*838 FILLER_0_6_37
*839 FILLER_0_7_136
*840 FILLER_0_7_142
*841 FILLER_0_7_2
*842 FILLER_0_7_206
*843 FILLER_0_7_212
*844 FILLER_0_7_276
*845 FILLER_0_7_282
*846 FILLER_0_7_346
*847 FILLER_0_7_348
*848 FILLER_0_7_66
*849 FILLER_0_7_72
*850 FILLER_0_8_101
*851 FILLER_0_8_107
*852 FILLER_0_8_171
*853 FILLER_0_8_177
*854 FILLER_0_8_2
*855 FILLER_0_8_241
*856 FILLER_0_8_247
*857 FILLER_0_8_311
*858 FILLER_0_8_317
*859 FILLER_0_8_34
*860 FILLER_0_8_37
*861 FILLER_0_9_136
*862 FILLER_0_9_142
*863 FILLER_0_9_2
*864 FILLER_0_9_206
*865 FILLER_0_9_212
*866 FILLER_0_9_276
*867 FILLER_0_9_282
*868 FILLER_0_9_346
*869 FILLER_0_9_348
*870 FILLER_0_9_66
*871 FILLER_0_9_72
*872 PHY_EDGE_ROW_0_Left_45
*873 PHY_EDGE_ROW_0_Right_0
*874 PHY_EDGE_ROW_10_Left_55
*875 PHY_EDGE_ROW_10_Right_10
*876 PHY_EDGE_ROW_11_Left_56
*877 PHY_EDGE_ROW_11_Right_11
*878 PHY_EDGE_ROW_12_Left_57
*879 PHY_EDGE_ROW_12_Right_12
*880 PHY_EDGE_ROW_13_Left_58
*881 PHY_EDGE_ROW_13_Right_13
*882 PHY_EDGE_ROW_14_Left_59
*883 PHY_EDGE_ROW_14_Right_14
*884 PHY_EDGE_ROW_15_Left_60
*885 PHY_EDGE_ROW_15_Right_15
*886 PHY_EDGE_ROW_16_Left_61
*887 PHY_EDGE_ROW_16_Right_16
*888 PHY_EDGE_ROW_17_Left_62
*889 PHY_EDGE_ROW_17_Right_17
*890 PHY_EDGE_ROW_18_Left_63
*891 PHY_EDGE_ROW_18_Right_18
*892 PHY_EDGE_ROW_19_Left_64
*893 PHY_EDGE_ROW_19_Right_19
*894 PHY_EDGE_ROW_1_Left_46
*895 PHY_EDGE_ROW_1_Right_1
*896 PHY_EDGE_ROW_20_Left_65
*897 PHY_EDGE_ROW_20_Right_20
*898 PHY_EDGE_ROW_21_Left_66
*899 PHY_EDGE_ROW_21_Right_21
*900 PHY_EDGE_ROW_22_Left_67
*901 PHY_EDGE_ROW_22_Right_22
*902 PHY_EDGE_ROW_23_Left_68
*903 PHY_EDGE_ROW_23_Right_23
*904 PHY_EDGE_ROW_24_Left_69
*905 PHY_EDGE_ROW_24_Right_24
*906 PHY_EDGE_ROW_25_Left_70
*907 PHY_EDGE_ROW_25_Right_25
*908 PHY_EDGE_ROW_26_Left_71
*909 PHY_EDGE_ROW_26_Right_26
*910 PHY_EDGE_ROW_27_Left_72
*911 PHY_EDGE_ROW_27_Right_27
*912 PHY_EDGE_ROW_28_Left_73
*913 PHY_EDGE_ROW_28_Right_28
*914 PHY_EDGE_ROW_29_Left_74
*915 PHY_EDGE_ROW_29_Right_29
*916 PHY_EDGE_ROW_2_Left_47
*917 PHY_EDGE_ROW_2_Right_2
*918 PHY_EDGE_ROW_30_Left_75
*919 PHY_EDGE_ROW_30_Right_30
*920 PHY_EDGE_ROW_31_Left_76
*921 PHY_EDGE_ROW_31_Right_31
*922 PHY_EDGE_ROW_32_Left_77
*923 PHY_EDGE_ROW_32_Right_32
*924 PHY_EDGE_ROW_33_Left_78
*925 PHY_EDGE_ROW_33_Right_33
*926 PHY_EDGE_ROW_34_Left_79
*927 PHY_EDGE_ROW_34_Right_34
*928 PHY_EDGE_ROW_35_Left_80
*929 PHY_EDGE_ROW_35_Right_35
*930 PHY_EDGE_ROW_36_Left_81
*931 PHY_EDGE_ROW_36_Right_36
*932 PHY_EDGE_ROW_37_Left_82
*933 PHY_EDGE_ROW_37_Right_37
*934 PHY_EDGE_ROW_38_Left_83
*935 PHY_EDGE_ROW_38_Right_38
*936 PHY_EDGE_ROW_39_Left_84
*937 PHY_EDGE_ROW_39_Right_39
*938 PHY_EDGE_ROW_3_Left_48
*939 PHY_EDGE_ROW_3_Right_3
*940 PHY_EDGE_ROW_40_Left_85
*941 PHY_EDGE_ROW_40_Right_40
*942 PHY_EDGE_ROW_41_Left_86
*943 PHY_EDGE_ROW_41_Right_41
*944 PHY_EDGE_ROW_42_Left_87
*945 PHY_EDGE_ROW_42_Right_42
*946 PHY_EDGE_ROW_43_Left_88
*947 PHY_EDGE_ROW_43_Right_43
*948 PHY_EDGE_ROW_44_Left_89
*949 PHY_EDGE_ROW_44_Right_44
*950 PHY_EDGE_ROW_4_Left_49
*951 PHY_EDGE_ROW_4_Right_4
*952 PHY_EDGE_ROW_5_Left_50
*953 PHY_EDGE_ROW_5_Right_5
*954 PHY_EDGE_ROW_6_Left_51
*955 PHY_EDGE_ROW_6_Right_6
*956 PHY_EDGE_ROW_7_Left_52
*957 PHY_EDGE_ROW_7_Right_7
*958 PHY_EDGE_ROW_8_Left_53
*959 PHY_EDGE_ROW_8_Right_8
*960 PHY_EDGE_ROW_9_Left_54
*961 PHY_EDGE_ROW_9_Right_9
*962 TAP_TAPCELL_ROW_0_90
*963 TAP_TAPCELL_ROW_0_91
*964 TAP_TAPCELL_ROW_0_92
*965 TAP_TAPCELL_ROW_0_93
*966 TAP_TAPCELL_ROW_0_94
*967 TAP_TAPCELL_ROW_0_95
*968 TAP_TAPCELL_ROW_0_96
*969 TAP_TAPCELL_ROW_0_97
*970 TAP_TAPCELL_ROW_0_98
*971 TAP_TAPCELL_ROW_0_99
*972 TAP_TAPCELL_ROW_10_140
*973 TAP_TAPCELL_ROW_10_141
*974 TAP_TAPCELL_ROW_10_142
*975 TAP_TAPCELL_ROW_10_143
*976 TAP_TAPCELL_ROW_10_144
*977 TAP_TAPCELL_ROW_11_145
*978 TAP_TAPCELL_ROW_11_146
*979 TAP_TAPCELL_ROW_11_147
*980 TAP_TAPCELL_ROW_11_148
*981 TAP_TAPCELL_ROW_12_149
*982 TAP_TAPCELL_ROW_12_150
*983 TAP_TAPCELL_ROW_12_151
*984 TAP_TAPCELL_ROW_12_152
*985 TAP_TAPCELL_ROW_12_153
*986 TAP_TAPCELL_ROW_13_154
*987 TAP_TAPCELL_ROW_13_155
*988 TAP_TAPCELL_ROW_13_156
*989 TAP_TAPCELL_ROW_13_157
*990 TAP_TAPCELL_ROW_14_158
*991 TAP_TAPCELL_ROW_14_159
*992 TAP_TAPCELL_ROW_14_160
*993 TAP_TAPCELL_ROW_14_161
*994 TAP_TAPCELL_ROW_14_162
*995 TAP_TAPCELL_ROW_15_163
*996 TAP_TAPCELL_ROW_15_164
*997 TAP_TAPCELL_ROW_15_165
*998 TAP_TAPCELL_ROW_15_166
*999 TAP_TAPCELL_ROW_16_167
*1000 TAP_TAPCELL_ROW_16_168
*1001 TAP_TAPCELL_ROW_16_169
*1002 TAP_TAPCELL_ROW_16_170
*1003 TAP_TAPCELL_ROW_16_171
*1004 TAP_TAPCELL_ROW_17_172
*1005 TAP_TAPCELL_ROW_17_173
*1006 TAP_TAPCELL_ROW_17_174
*1007 TAP_TAPCELL_ROW_17_175
*1008 TAP_TAPCELL_ROW_18_176
*1009 TAP_TAPCELL_ROW_18_177
*1010 TAP_TAPCELL_ROW_18_178
*1011 TAP_TAPCELL_ROW_18_179
*1012 TAP_TAPCELL_ROW_18_180
*1013 TAP_TAPCELL_ROW_19_181
*1014 TAP_TAPCELL_ROW_19_182
*1015 TAP_TAPCELL_ROW_19_183
*1016 TAP_TAPCELL_ROW_19_184
*1017 TAP_TAPCELL_ROW_1_100
*1018 TAP_TAPCELL_ROW_1_101
*1019 TAP_TAPCELL_ROW_1_102
*1020 TAP_TAPCELL_ROW_1_103
*1021 TAP_TAPCELL_ROW_20_185
*1022 TAP_TAPCELL_ROW_20_186
*1023 TAP_TAPCELL_ROW_20_187
*1024 TAP_TAPCELL_ROW_20_188
*1025 TAP_TAPCELL_ROW_20_189
*1026 TAP_TAPCELL_ROW_21_190
*1027 TAP_TAPCELL_ROW_21_191
*1028 TAP_TAPCELL_ROW_21_192
*1029 TAP_TAPCELL_ROW_21_193
*1030 TAP_TAPCELL_ROW_22_194
*1031 TAP_TAPCELL_ROW_22_195
*1032 TAP_TAPCELL_ROW_22_196
*1033 TAP_TAPCELL_ROW_22_197
*1034 TAP_TAPCELL_ROW_22_198
*1035 TAP_TAPCELL_ROW_23_199
*1036 TAP_TAPCELL_ROW_23_200
*1037 TAP_TAPCELL_ROW_23_201
*1038 TAP_TAPCELL_ROW_23_202
*1039 TAP_TAPCELL_ROW_24_203
*1040 TAP_TAPCELL_ROW_24_204
*1041 TAP_TAPCELL_ROW_24_205
*1042 TAP_TAPCELL_ROW_24_206
*1043 TAP_TAPCELL_ROW_24_207
*1044 TAP_TAPCELL_ROW_25_208
*1045 TAP_TAPCELL_ROW_25_209
*1046 TAP_TAPCELL_ROW_25_210
*1047 TAP_TAPCELL_ROW_25_211
*1048 TAP_TAPCELL_ROW_26_212
*1049 TAP_TAPCELL_ROW_26_213
*1050 TAP_TAPCELL_ROW_26_214
*1051 TAP_TAPCELL_ROW_26_215
*1052 TAP_TAPCELL_ROW_26_216
*1053 TAP_TAPCELL_ROW_27_217
*1054 TAP_TAPCELL_ROW_27_218
*1055 TAP_TAPCELL_ROW_27_219
*1056 TAP_TAPCELL_ROW_27_220
*1057 TAP_TAPCELL_ROW_28_221
*1058 TAP_TAPCELL_ROW_28_222
*1059 TAP_TAPCELL_ROW_28_223
*1060 TAP_TAPCELL_ROW_28_224
*1061 TAP_TAPCELL_ROW_28_225
*1062 TAP_TAPCELL_ROW_29_226
*1063 TAP_TAPCELL_ROW_29_227
*1064 TAP_TAPCELL_ROW_29_228
*1065 TAP_TAPCELL_ROW_29_229
*1066 TAP_TAPCELL_ROW_2_104
*1067 TAP_TAPCELL_ROW_2_105
*1068 TAP_TAPCELL_ROW_2_106
*1069 TAP_TAPCELL_ROW_2_107
*1070 TAP_TAPCELL_ROW_2_108
*1071 TAP_TAPCELL_ROW_30_230
*1072 TAP_TAPCELL_ROW_30_231
*1073 TAP_TAPCELL_ROW_30_232
*1074 TAP_TAPCELL_ROW_30_233
*1075 TAP_TAPCELL_ROW_30_234
*1076 TAP_TAPCELL_ROW_31_235
*1077 TAP_TAPCELL_ROW_31_236
*1078 TAP_TAPCELL_ROW_31_237
*1079 TAP_TAPCELL_ROW_31_238
*1080 TAP_TAPCELL_ROW_32_239
*1081 TAP_TAPCELL_ROW_32_240
*1082 TAP_TAPCELL_ROW_32_241
*1083 TAP_TAPCELL_ROW_32_242
*1084 TAP_TAPCELL_ROW_32_243
*1085 TAP_TAPCELL_ROW_33_244
*1086 TAP_TAPCELL_ROW_33_245
*1087 TAP_TAPCELL_ROW_33_246
*1088 TAP_TAPCELL_ROW_33_247
*1089 TAP_TAPCELL_ROW_34_248
*1090 TAP_TAPCELL_ROW_34_249
*1091 TAP_TAPCELL_ROW_34_250
*1092 TAP_TAPCELL_ROW_34_251
*1093 TAP_TAPCELL_ROW_34_252
*1094 TAP_TAPCELL_ROW_35_253
*1095 TAP_TAPCELL_ROW_35_254
*1096 TAP_TAPCELL_ROW_35_255
*1097 TAP_TAPCELL_ROW_35_256
*1098 TAP_TAPCELL_ROW_36_257
*1099 TAP_TAPCELL_ROW_36_258
*1100 TAP_TAPCELL_ROW_36_259
*1101 TAP_TAPCELL_ROW_36_260
*1102 TAP_TAPCELL_ROW_36_261
*1103 TAP_TAPCELL_ROW_37_262
*1104 TAP_TAPCELL_ROW_37_263
*1105 TAP_TAPCELL_ROW_37_264
*1106 TAP_TAPCELL_ROW_37_265
*1107 TAP_TAPCELL_ROW_38_266
*1108 TAP_TAPCELL_ROW_38_267
*1109 TAP_TAPCELL_ROW_38_268
*1110 TAP_TAPCELL_ROW_38_269
*1111 TAP_TAPCELL_ROW_38_270
*1112 TAP_TAPCELL_ROW_39_271
*1113 TAP_TAPCELL_ROW_39_272
*1114 TAP_TAPCELL_ROW_39_273
*1115 TAP_TAPCELL_ROW_39_274
*1116 TAP_TAPCELL_ROW_3_109
*1117 TAP_TAPCELL_ROW_3_110
*1118 TAP_TAPCELL_ROW_3_111
*1119 TAP_TAPCELL_ROW_3_112
*1120 TAP_TAPCELL_ROW_40_275
*1121 TAP_TAPCELL_ROW_40_276
*1122 TAP_TAPCELL_ROW_40_277
*1123 TAP_TAPCELL_ROW_40_278
*1124 TAP_TAPCELL_ROW_40_279
*1125 TAP_TAPCELL_ROW_41_280
*1126 TAP_TAPCELL_ROW_41_281
*1127 TAP_TAPCELL_ROW_41_282
*1128 TAP_TAPCELL_ROW_41_283
*1129 TAP_TAPCELL_ROW_42_284
*1130 TAP_TAPCELL_ROW_42_285
*1131 TAP_TAPCELL_ROW_42_286
*1132 TAP_TAPCELL_ROW_42_287
*1133 TAP_TAPCELL_ROW_42_288
*1134 TAP_TAPCELL_ROW_43_289
*1135 TAP_TAPCELL_ROW_43_290
*1136 TAP_TAPCELL_ROW_43_291
*1137 TAP_TAPCELL_ROW_43_292
*1138 TAP_TAPCELL_ROW_44_293
*1139 TAP_TAPCELL_ROW_44_294
*1140 TAP_TAPCELL_ROW_44_295
*1141 TAP_TAPCELL_ROW_44_296
*1142 TAP_TAPCELL_ROW_44_297
*1143 TAP_TAPCELL_ROW_44_298
*1144 TAP_TAPCELL_ROW_44_299
*1145 TAP_TAPCELL_ROW_44_300
*1146 TAP_TAPCELL_ROW_44_301
*1147 TAP_TAPCELL_ROW_44_302
*1148 TAP_TAPCELL_ROW_4_113
*1149 TAP_TAPCELL_ROW_4_114
*1150 TAP_TAPCELL_ROW_4_115
*1151 TAP_TAPCELL_ROW_4_116
*1152 TAP_TAPCELL_ROW_4_117
*1153 TAP_TAPCELL_ROW_5_118
*1154 TAP_TAPCELL_ROW_5_119
*1155 TAP_TAPCELL_ROW_5_120
*1156 TAP_TAPCELL_ROW_5_121
*1157 TAP_TAPCELL_ROW_6_122
*1158 TAP_TAPCELL_ROW_6_123
*1159 TAP_TAPCELL_ROW_6_124
*1160 TAP_TAPCELL_ROW_6_125
*1161 TAP_TAPCELL_ROW_6_126
*1162 TAP_TAPCELL_ROW_7_127
*1163 TAP_TAPCELL_ROW_7_128
*1164 TAP_TAPCELL_ROW_7_129
*1165 TAP_TAPCELL_ROW_7_130
*1166 TAP_TAPCELL_ROW_8_131
*1167 TAP_TAPCELL_ROW_8_132
*1168 TAP_TAPCELL_ROW_8_133
*1169 TAP_TAPCELL_ROW_8_134
*1170 TAP_TAPCELL_ROW_8_135
*1171 TAP_TAPCELL_ROW_9_136
*1172 TAP_TAPCELL_ROW_9_137
*1173 TAP_TAPCELL_ROW_9_138
*1174 TAP_TAPCELL_ROW_9_139
*1175 _097_
*1176 _098_
*1177 _099_
*1178 _100_
*1179 _101_
*1180 _102_
*1181 _103_
*1182 _104_
*1183 _105_
*1184 _106_
*1185 _107_
*1186 _108_
*1187 _109_
*1188 _110_
*1189 _111_
*1190 _112_
*1191 _113_
*1192 _114_
*1193 _115_
*1194 _116_
*1195 _117_
*1196 _118_
*1197 _119_
*1198 _120_
*1199 _121_
*1200 _122_
*1201 _123_
*1202 _124_
*1203 _125_
*1204 _126_
*1205 _127_
*1206 _128_
*1207 _129_
*1208 _130_
*1209 _131_
*1210 _132_
*1211 _133_
*1212 _134_
*1213 _135_
*1214 _136_
*1215 _137_
*1216 _138_
*1217 _139_
*1218 _140_
*1219 _141_
*1220 _142_
*1221 _143_
*1222 _144_
*1223 _145_
*1224 _146_
*1225 _147_
*1226 _148_
*1227 _149_
*1228 _150_
*1229 _151_
*1230 _152_
*1231 _153_
*1232 _154_
*1233 _155_
*1234 _156_
*1235 _157_
*1236 _158_
*1237 _159_
*1238 _160_
*1239 _161_
*1240 _162_
*1241 _163_
*1242 _164_
*1243 _165_
*1244 _166_
*1245 _167_
*1246 _168_
*1247 _169_
*1248 _170_
*1249 _171_
*1250 _172_
*1251 _173_
*1252 _174_
*1253 _175_
*1254 _176_
*1255 _177_
*1256 _178_
*1257 _179_
*1258 _180_
*1259 _181_
*1260 _182_
*1261 _183_
*1262 _184_
*1263 _185_
*1264 _186_
*1265 _187_
*1266 _188_
*1267 _189_
*1268 _190_
*1269 _191_
*1270 _192_
*1271 _193_
*1272 _194_
*1273 _195_
*1274 _196_
*1275 _197_
*1276 _198_
*1277 _199_
*1278 _200_
*1279 _201_
*1280 _202_
*1281 _203_
*1282 _204_
*1283 _205_
*1284 _206_
*1285 _207_
*1286 _208_
*1287 _209_
*1288 _210_
*1289 _211_
*1290 _212_
*1291 _213_
*1292 _214_
*1293 _215_
*1294 _216_
*1295 _217_
*1296 _221_
*1297 _222_
*1298 _223_
*1299 clkbuf_0_clk
*1300 clkbuf_1_0__f_clk
*1301 clkbuf_1_1__f_clk
*1302 ita51_24
*1303 ita51_25
*1304 ita51_26
*1305 output1
*1306 output10
*1307 output11
*1308 output12
*1309 output13
*1310 output14
*1311 output15
*1312 output16
*1313 output17
*1314 output18
*1315 output19
*1316 output2
*1317 output20
*1318 output21
*1319 output22
*1320 output23
*1321 output3
*1322 output4
*1323 output5
*1324 output6
*1325 output7
*1326 output8
*1327 output9

*PORTS
clk I
segm[0] O
segm[10] O
segm[11] O
segm[12] O
segm[13] O
segm[1] O
segm[2] O
segm[3] O
segm[4] O
segm[5] O
segm[6] O
segm[7] O
segm[8] O
segm[9] O
sel[0] O
sel[10] O
sel[11] O
sel[1] O
sel[2] O
sel[3] O
sel[4] O
sel[5] O
sel[6] O
sel[7] O
sel[8] O
sel[9] O

*D_NET *1 0.0133571
*CONN
*P clk I
*I *1299:I I *D gf180mcu_fd_sc_mcu7t5v0__clkbuf_16
*I *181:I I *D gf180mcu_fd_sc_mcu7t5v0__antenna
*CAP
1 clk 0.00284474
2 *1299:I 0.000198743
3 *181:I 0
4 *1:17 0.00266912
5 *1:11 0.00531512
6 *1299:I *1196:A1 3.7472e-05
7 *1299:I *1210:I 0.000415294
8 *1299:I *1251:A2 0.00010761
9 *1:17 *1196:A1 1.18566e-06
10 *1:17 *1210:I 0.000626417
11 *1:17 *1231:A1 0.000261225
12 *1:17 *1231:B1 0.000149995
13 *1:17 *1231:B2 3.53881e-05
14 *1:17 *1247:A2 0
15 *1:17 *1284:D 0.000359544
16 *1:17 *1308:I 0.000335225
17 *1:17 *66:12 0
*RES
1 clk *1:11 29.956 
2 *1:11 *1:17 25.48 
3 *1:17 *181:I 9 
4 *1:17 *1299:I 10.976 
*END

*D_NET *2 0.00166928
*CONN
*P segm[0] O
*I *1302:ZN O *D gf180mcu_fd_sc_mcu7t5v0__tiel
*CAP
1 segm[0] 0.000834639
2 *1302:ZN 0.000834639
*RES
1 *1302:ZN segm[0] 11.312 
*END

*D_NET *3 0.000831067
*CONN
*P segm[10] O
*I *1305:Z O *D gf180mcu_fd_sc_mcu7t5v0__buf_8
*CAP
1 segm[10] 0.000415533
2 *1305:Z 0.000415533
*RES
1 *1305:Z segm[10] 11.86 
*END

*D_NET *4 0.00145108
*CONN
*P segm[11] O
*I *1316:Z O *D gf180mcu_fd_sc_mcu7t5v0__buf_8
*CAP
1 segm[11] 0.000725541
2 *1316:Z 0.000725541
*RES
1 *1316:Z segm[11] 10.376 
*END

*D_NET *5 0.000968211
*CONN
*P segm[12] O
*I *1321:Z O *D gf180mcu_fd_sc_mcu7t5v0__buf_8
*CAP
1 segm[12] 0.000484105
2 *1321:Z 0.000484105
*RES
1 *1321:Z segm[12] 12.692 
*END

*D_NET *6 0.00197604
*CONN
*P segm[13] O
*I *1322:Z O *D gf180mcu_fd_sc_mcu7t5v0__buf_8
*CAP
1 segm[13] 0.000988018
2 *1322:Z 0.000988018
3 segm[13] sel[6] 0
*RES
1 *1322:Z segm[13] 21.248 
*END

*D_NET *7 0.00053657
*CONN
*P segm[1] O
*I *1323:Z O *D gf180mcu_fd_sc_mcu7t5v0__buf_8
*CAP
1 segm[1] 0.000197781
2 *1323:Z 0.000197781
3 segm[1] segm[4] 7.20128e-05
4 segm[1] sel[10] 6.8994e-05
*RES
1 *1323:Z segm[1] 11.34 
*END

*D_NET *8 0.00336725
*CONN
*P segm[2] O
*I *1324:Z O *D gf180mcu_fd_sc_mcu7t5v0__buf_8
*CAP
1 segm[2] 0.0014332
2 *1324:Z 0.0014332
3 segm[2] sel[3] 0.000175051
4 segm[2] *1313:I 0
5 segm[2] *1316:I 0
6 segm[2] *1324:I 0.000325803
*RES
1 *1324:Z segm[2] 26.136 
*END

*D_NET *9 0.00041822
*CONN
*P segm[3] O
*I *1303:ZN O *D gf180mcu_fd_sc_mcu7t5v0__tiel
*CAP
1 segm[3] 0.00020911
2 *1303:ZN 0.00020911
*RES
1 *1303:ZN segm[3] 10.924 
*END

*D_NET *10 0.000837676
*CONN
*P segm[4] O
*I *1325:Z O *D gf180mcu_fd_sc_mcu7t5v0__buf_8
*CAP
1 segm[4] 0.000382831