*SPEF "ieee 1481-1999"
*DESIGN "ita56"
*DATE "11:11:11 Fri 11 11, 1111"
*VENDOR "OpenRCX"
*PROGRAM "Parallel Extraction"
*VERSION "1.0"
*DESIGN_FLOW "NAME_SCOPE LOCAL" "PIN_CAP NONE"
*DIVIDER /
*DELIMITER :
*BUS_DELIMITER []
*T_UNIT 1 NS
*C_UNIT 1 PF
*R_UNIT 1 OHM
*L_UNIT 1 HENRY

*NAME_MAP
*1 clk
*2 segm[0]
*3 segm[10]
*4 segm[11]
*5 segm[12]
*6 segm[13]
*7 segm[1]
*8 net25
*9 segm[3]
*10 segm[4]
*11 net26
*12 segm[6]
*13 segm[7]
*14 segm[8]
*15 segm[9]
*16 sel[0]
*17 sel[10]
*18 sel[11]
*19 sel[1]
*20 sel[2]
*21 sel[3]
*22 sel[4]
*23 sel[5]
*24 sel[6]
*25 sel[7]
*26 sel[8]
*27 sel[9]
*30 _000_
*31 _001_
*32 _002_
*33 _003_
*34 _004_
*35 _005_
*36 _006_
*37 _007_
*38 _008_
*39 _009_
*40 _010_
*41 _011_
*42 _012_
*43 _013_
*44 _014_
*45 _015_
*46 _016_
*47 _017_
*48 _018_
*49 _019_
*50 _020_
*51 _021_
*52 _022_
*53 _023_
*54 _024_
*55 _025_
*56 _026_
*57 _027_
*58 _028_
*59 _029_
*60 _030_
*61 _031_
*62 _032_
*63 _033_
*64 _034_
*65 _035_
*66 _036_
*67 _037_
*68 _038_
*69 _039_
*70 _040_
*71 _041_
*72 _042_
*73 _043_
*74 _044_
*75 _045_
*76 _046_
*77 _047_
*78 _048_
*79 _049_
*80 _050_
*81 _051_
*82 _052_
*83 _053_
*84 _054_
*85 _055_
*86 _056_
*87 _057_
*88 _058_
*89 _059_
*90 _060_
*91 _061_
*92 _062_
*93 _063_
*94 _064_
*95 _065_
*96 _066_
*97 _067_
*98 _068_
*99 _069_
*100 _070_
*101 _071_
*102 _072_
*103 _073_
*104 _074_
*105 _075_
*106 _076_
*107 _077_
*108 _078_
*109 _079_
*110 _080_
*111 _081_
*112 _082_
*113 _083_
*114 _084_
*115 _085_
*116 _086_
*117 _087_
*118 _088_
*119 _089_
*120 _090_
*121 _091_
*122 _092_
*123 _093_
*124 _094_
*125 _095_
*126 _096_
*127 _097_
*128 _098_
*129 _099_
*130 _100_
*131 clknet_0_clk
*132 clknet_1_0__leaf_clk
*133 clknet_1_1__leaf_clk
*134 dut56\.count\[0\]
*135 dut56\.count\[1\]
*136 dut56\.count\[2\]
*137 dut56\.count\[3\]
*138 net1
*139 net10
*140 net11
*141 net12
*142 net13
*143 net14
*144 net15
*145 net16
*146 net17
*147 net18
*148 net19
*149 net2
*150 net20
*151 net21
*152 net22
*153 net23
*154 net24
*155 net3
*156 net4
*157 net5
*158 net6
*159 net7
*160 net8
*161 net9
*162 ANTENNA__104__I
*163 ANTENNA__154__A1
*164 ANTENNA__189__A2
*165 ANTENNA__200__A2
*166 ANTENNA__202__CLK
*167 ANTENNA__203__CLK
*168 ANTENNA__204__CLK
*169 ANTENNA__205__CLK
*170 ANTENNA__206__CLK
*171 ANTENNA__207__CLK
*172 ANTENNA__208__CLK
*173 ANTENNA__209__CLK
*174 ANTENNA__210__CLK
*175 ANTENNA__211__CLK
*176 ANTENNA__212__CLK
*177 ANTENNA__213__CLK
*178 ANTENNA__214__CLK
*179 ANTENNA__215__CLK
*180 ANTENNA__216__CLK
*181 ANTENNA__217__CLK
*182 ANTENNA__218__CLK
*183 ANTENNA__219__CLK
*184 ANTENNA__220__CLK
*185 ANTENNA__221__CLK
*186 ANTENNA__222__CLK
*187 ANTENNA__223__CLK
*188 ANTENNA__224__CLK
*189 ANTENNA__225__CLK
*190 ANTENNA__226__CLK
*191 ANTENNA_clkbuf_0_clk_I
*192 FILLER_0_0_104
*193 FILLER_0_0_138
*194 FILLER_0_0_142
*195 FILLER_0_0_172
*196 FILLER_0_0_176
*197 FILLER_0_0_2
*198 FILLER_0_0_232
*199 FILLER_0_0_236
*200 FILLER_0_0_240
*201 FILLER_0_0_274
*202 FILLER_0_0_308
*203 FILLER_0_0_342
*204 FILLER_0_0_346
*205 FILLER_0_0_348
*206 FILLER_0_0_36
*207 FILLER_0_0_70
*208 FILLER_0_10_101
*209 FILLER_0_10_107
*210 FILLER_0_10_171
*211 FILLER_0_10_177
*212 FILLER_0_10_2
*213 FILLER_0_10_241
*214 FILLER_0_10_247
*215 FILLER_0_10_311
*216 FILLER_0_10_317
*217 FILLER_0_10_34
*218 FILLER_0_10_37
*219 FILLER_0_11_136
*220 FILLER_0_11_142
*221 FILLER_0_11_2
*222 FILLER_0_11_206
*223 FILLER_0_11_212
*224 FILLER_0_11_276
*225 FILLER_0_11_282
*226 FILLER_0_11_346
*227 FILLER_0_11_348
*228 FILLER_0_11_66
*229 FILLER_0_11_72
*230 FILLER_0_12_101
*231 FILLER_0_12_107
*232 FILLER_0_12_139
*233 FILLER_0_12_143
*234 FILLER_0_12_183
*235 FILLER_0_12_2
*236 FILLER_0_12_215
*237 FILLER_0_12_231
*238 FILLER_0_12_239
*239 FILLER_0_12_243
*240 FILLER_0_12_247
*241 FILLER_0_12_311
*242 FILLER_0_12_317
*243 FILLER_0_12_34
*244 FILLER_0_12_37
*245 FILLER_0_13_104
*246 FILLER_0_13_120
*247 FILLER_0_13_128
*248 FILLER_0_13_132
*249 FILLER_0_13_136
*250 FILLER_0_13_171
*251 FILLER_0_13_173
*252 FILLER_0_13_2
*253 FILLER_0_13_203
*254 FILLER_0_13_207
*255 FILLER_0_13_209
*256 FILLER_0_13_212
*257 FILLER_0_13_276
*258 FILLER_0_13_282
*259 FILLER_0_13_314
*260 FILLER_0_13_330
*261 FILLER_0_13_338
*262 FILLER_0_13_342
*263 FILLER_0_13_344
*264 FILLER_0_13_66
*265 FILLER_0_13_72
*266 FILLER_0_14_101
*267 FILLER_0_14_107
*268 FILLER_0_14_115
*269 FILLER_0_14_146
*270 FILLER_0_14_153
*271 FILLER_0_14_166
*272 FILLER_0_14_168
*273 FILLER_0_14_173
*274 FILLER_0_14_177
*275 FILLER_0_14_185
*276 FILLER_0_14_189
*277 FILLER_0_14_191
*278 FILLER_0_14_196
*279 FILLER_0_14_2
*280 FILLER_0_14_228
*281 FILLER_0_14_244
*282 FILLER_0_14_247
*283 FILLER_0_14_311
*284 FILLER_0_14_317
*285 FILLER_0_14_34
*286 FILLER_0_14_37
*287 FILLER_0_15_120
*288 FILLER_0_15_124
*289 FILLER_0_15_160
*290 FILLER_0_15_164
*291 FILLER_0_15_2
*292 FILLER_0_15_206
*293 FILLER_0_15_212
*294 FILLER_0_15_276
*295 FILLER_0_15_282
*296 FILLER_0_15_346
*297 FILLER_0_15_348
*298 FILLER_0_15_66
*299 FILLER_0_15_72
*300 FILLER_0_15_88
*301 FILLER_0_15_90
*302 FILLER_0_16_101
*303 FILLER_0_16_107
*304 FILLER_0_16_139
*305 FILLER_0_16_154
*306 FILLER_0_16_164
*307 FILLER_0_16_172
*308 FILLER_0_16_174
*309 FILLER_0_16_177
*310 FILLER_0_16_193
*311 FILLER_0_16_2
*312 FILLER_0_16_223
*313 FILLER_0_16_227
*314 FILLER_0_16_243
*315 FILLER_0_16_247
*316 FILLER_0_16_311
*317 FILLER_0_16_317
*318 FILLER_0_16_34
*319 FILLER_0_16_37
*320 FILLER_0_17_113
*321 FILLER_0_17_117
*322 FILLER_0_17_133
*323 FILLER_0_17_137
*324 FILLER_0_17_139
*325 FILLER_0_17_142
*326 FILLER_0_17_174
*327 FILLER_0_17_2
*328 FILLER_0_17_206
*329 FILLER_0_17_212
*330 FILLER_0_17_276
*331 FILLER_0_17_282
*332 FILLER_0_17_346
*333 FILLER_0_17_348
*334 FILLER_0_17_66
*335 FILLER_0_17_72
*336 FILLER_0_17_80
*337 FILLER_0_18_101
*338 FILLER_0_18_107
*339 FILLER_0_18_109
*340 FILLER_0_18_112
*341 FILLER_0_18_114
*342 FILLER_0_18_145
*343 FILLER_0_18_149
*344 FILLER_0_18_151
*345 FILLER_0_18_170
*346 FILLER_0_18_174
*347 FILLER_0_18_177
*348 FILLER_0_18_185
*349 FILLER_0_18_196
*350 FILLER_0_18_2
*351 FILLER_0_18_228
*352 FILLER_0_18_244
*353 FILLER_0_18_247
*354 FILLER_0_18_311
*355 FILLER_0_18_317
*356 FILLER_0_18_34
*357 FILLER_0_18_37
*358 FILLER_0_19_110
*359 FILLER_0_19_158
*360 FILLER_0_19_179
*361 FILLER_0_19_195
*362 FILLER_0_19_203
*363 FILLER_0_19_207
*364 FILLER_0_19_241
*365 FILLER_0_19_273
*366 FILLER_0_19_277
*367 FILLER_0_19_279
*368 FILLER_0_19_28
*369 FILLER_0_19_282
*370 FILLER_0_19_346
*371 FILLER_0_19_348
*372 FILLER_0_19_60
*373 FILLER_0_19_68
*374 FILLER_0_19_72
*375 FILLER_0_19_80
*376 FILLER_0_1_136
*377 FILLER_0_1_142
*378 FILLER_0_1_144
*379 FILLER_0_1_171
*380 FILLER_0_1_2
*381 FILLER_0_1_201
*382 FILLER_0_1_209
*383 FILLER_0_1_238
*384 FILLER_0_1_270
*385 FILLER_0_1_278
*386 FILLER_0_1_282
*387 FILLER_0_1_346
*388 FILLER_0_1_348
*389 FILLER_0_1_66
*390 FILLER_0_1_72
*391 FILLER_0_20_101
*392 FILLER_0_20_171
*393 FILLER_0_20_191
*394 FILLER_0_20_2
*395 FILLER_0_20_240
*396 FILLER_0_20_244
*397 FILLER_0_20_247
*398 FILLER_0_20_311
*399 FILLER_0_20_317
*400 FILLER_0_20_321
*401 FILLER_0_20_34
*402 FILLER_0_20_37
*403 FILLER_0_21_104
*404 FILLER_0_21_108
*405 FILLER_0_21_114
*406 FILLER_0_21_135
*407 FILLER_0_21_139
*408 FILLER_0_21_148
*409 FILLER_0_21_150
*410 FILLER_0_21_174
*411 FILLER_0_21_188
*412 FILLER_0_21_2
*413 FILLER_0_21_212
*414 FILLER_0_21_227
*415 FILLER_0_21_259
*416 FILLER_0_21_275
*417 FILLER_0_21_279
*418 FILLER_0_21_282
*419 FILLER_0_21_314
*420 FILLER_0_21_322
*421 FILLER_0_21_66
*422 FILLER_0_21_72
*423 FILLER_0_22_101
*424 FILLER_0_22_107
*425 FILLER_0_22_115
*426 FILLER_0_22_119
*427 FILLER_0_22_123
*428 FILLER_0_22_125
*429 FILLER_0_22_139
*430 FILLER_0_22_161
*431 FILLER_0_22_171
*432 FILLER_0_22_177
*433 FILLER_0_22_2
*434 FILLER_0_22_230
*435 FILLER_0_22_234
*436 FILLER_0_22_242
*437 FILLER_0_22_244
*438 FILLER_0_22_247
*439 FILLER_0_22_311
*440 FILLER_0_22_317
*441 FILLER_0_22_34
*442 FILLER_0_22_37
*443 FILLER_0_23_113
*444 FILLER_0_23_117
*445 FILLER_0_23_135
*446 FILLER_0_23_139
*447 FILLER_0_23_142
*448 FILLER_0_23_199
*449 FILLER_0_23_2
*450 FILLER_0_23_207
*451 FILLER_0_23_209
*452 FILLER_0_23_212
*453 FILLER_0_23_214
*454 FILLER_0_23_246
*455 FILLER_0_23_278
*456 FILLER_0_23_282
*457 FILLER_0_23_314
*458 FILLER_0_23_322
*459 FILLER_0_23_66
*460 FILLER_0_23_72
*461 FILLER_0_23_80
*462 FILLER_0_24_107
*463 FILLER_0_24_111
*464 FILLER_0_24_122
*465 FILLER_0_24_124
*466 FILLER_0_24_148
*467 FILLER_0_24_152
*468 FILLER_0_24_154
*469 FILLER_0_24_161
*470 FILLER_0_24_169
*471 FILLER_0_24_173
*472 FILLER_0_24_2
*473 FILLER_0_24_234
*474 FILLER_0_24_242
*475 FILLER_0_24_244
*476 FILLER_0_24_247
*477 FILLER_0_24_311
*478 FILLER_0_24_317
*479 FILLER_0_24_321
*480 FILLER_0_24_34
*481 FILLER_0_24_37
*482 FILLER_0_24_69
*483 FILLER_0_24_73
*484 FILLER_0_24_75
*485 FILLER_0_25_104
*486 FILLER_0_25_120
*487 FILLER_0_25_128
*488 FILLER_0_25_136
*489 FILLER_0_25_142
*490 FILLER_0_25_144
*491 FILLER_0_25_151
*492 FILLER_0_25_2
*493 FILLER_0_25_204
*494 FILLER_0_25_208
*495 FILLER_0_25_212
*496 FILLER_0_25_220
*497 FILLER_0_25_229
*498 FILLER_0_25_235
*499 FILLER_0_25_239
*500 FILLER_0_25_271
*501 FILLER_0_25_279
*502 FILLER_0_25_282
*503 FILLER_0_25_314
*504 FILLER_0_25_322
*505 FILLER_0_25_66
*506 FILLER_0_25_72
*507 FILLER_0_26_101
*508 FILLER_0_26_107
*509 FILLER_0_26_123
*510 FILLER_0_26_131
*511 FILLER_0_26_140
*512 FILLER_0_26_142
*513 FILLER_0_26_149
*514 FILLER_0_26_159
*515 FILLER_0_26_177
*516 FILLER_0_26_185
*517 FILLER_0_26_197
*518 FILLER_0_26_2
*519 FILLER_0_26_213
*520 FILLER_0_26_247
*521 FILLER_0_26_311
*522 FILLER_0_26_317
*523 FILLER_0_26_34
*524 FILLER_0_26_37
*525 FILLER_0_27_104
*526 FILLER_0_27_112
*527 FILLER_0_27_116
*528 FILLER_0_27_121
*529 FILLER_0_27_135
*530 FILLER_0_27_139
*531 FILLER_0_27_155
*532 FILLER_0_27_171
*533 FILLER_0_27_180
*534 FILLER_0_27_184
*535 FILLER_0_27_190
*536 FILLER_0_27_2
*537 FILLER_0_27_206
*538 FILLER_0_27_212
*539 FILLER_0_27_276
*540 FILLER_0_27_282
*541 FILLER_0_27_314
*542 FILLER_0_27_322
*543 FILLER_0_27_66
*544 FILLER_0_27_72
*545 FILLER_0_28_101
*546 FILLER_0_28_142
*547 FILLER_0_28_146
*548 FILLER_0_28_162
*549 FILLER_0_28_170
*550 FILLER_0_28_174
*551 FILLER_0_28_177
*552 FILLER_0_28_209
*553 FILLER_0_28_211
*554 FILLER_0_28_214
*555 FILLER_0_28_226
*556 FILLER_0_28_228
*557 FILLER_0_28_234
*558 FILLER_0_28_238
*559 FILLER_0_28_242
*560 FILLER_0_28_244
*561 FILLER_0_28_247
*562 FILLER_0_28_28
*563 FILLER_0_28_311
*564 FILLER_0_28_317
*565 FILLER_0_28_32
*566 FILLER_0_28_34
*567 FILLER_0_28_37
*568 FILLER_0_29_129
*569 FILLER_0_29_133
*570 FILLER_0_29_137
*571 FILLER_0_29_148
*572 FILLER_0_29_152
*573 FILLER_0_29_154
*574 FILLER_0_29_177
*575 FILLER_0_29_181
*576 FILLER_0_29_185
*577 FILLER_0_29_187
*578 FILLER_0_29_212
*579 FILLER_0_29_243
*580 FILLER_0_29_275
*581 FILLER_0_29_279
*582 FILLER_0_29_28
*583 FILLER_0_29_282
*584 FILLER_0_29_346
*585 FILLER_0_29_348
*586 FILLER_0_29_60
*587 FILLER_0_29_68
*588 FILLER_0_29_72
*589 FILLER_0_29_88
*590 FILLER_0_29_96
*591 FILLER_0_2_101
*592 FILLER_0_2_107
*593 FILLER_0_2_171
*594 FILLER_0_2_177
*595 FILLER_0_2_2
*596 FILLER_0_2_209
*597 FILLER_0_2_237
*598 FILLER_0_2_247
*599 FILLER_0_2_311
*600 FILLER_0_2_317
*601 FILLER_0_2_34
*602 FILLER_0_2_37
*603 FILLER_0_30_101
*604 FILLER_0_30_107
*605 FILLER_0_30_139
*606 FILLER_0_30_143
*607 FILLER_0_30_174
*608 FILLER_0_30_182
*609 FILLER_0_30_184
*610 FILLER_0_30_2
*611 FILLER_0_30_218
*612 FILLER_0_30_222
*613 FILLER_0_30_238
*614 FILLER_0_30_242
*615 FILLER_0_30_244
*616 FILLER_0_30_247
*617 FILLER_0_30_311
*618 FILLER_0_30_317
*619 FILLER_0_30_321
*620 FILLER_0_30_34
*621 FILLER_0_30_37
*622 FILLER_0_31_104
*623 FILLER_0_31_120
*624 FILLER_0_31_128
*625 FILLER_0_31_148
*626 FILLER_0_31_2
*627 FILLER_0_31_212
*628 FILLER_0_31_216
*629 FILLER_0_31_282
*630 FILLER_0_31_346
*631 FILLER_0_31_348
*632 FILLER_0_31_66
*633 FILLER_0_31_72
*634 FILLER_0_32_101
*635 FILLER_0_32_107
*636 FILLER_0_32_115
*637 FILLER_0_32_151
*638 FILLER_0_32_155
*639 FILLER_0_32_171
*640 FILLER_0_32_177
*641 FILLER_0_32_183
*642 FILLER_0_32_2
*643 FILLER_0_32_215
*644 FILLER_0_32_231
*645 FILLER_0_32_239
*646 FILLER_0_32_243
*647 FILLER_0_32_247
*648 FILLER_0_32_311
*649 FILLER_0_32_317
*650 FILLER_0_32_34
*651 FILLER_0_32_37
*652 FILLER_0_33_136
*653 FILLER_0_33_142
*654 FILLER_0_33_2
*655 FILLER_0_33_206
*656 FILLER_0_33_212
*657 FILLER_0_33_276
*658 FILLER_0_33_282
*659 FILLER_0_33_346
*660 FILLER_0_33_348
*661 FILLER_0_33_66
*662 FILLER_0_33_72
*663 FILLER_0_34_101
*664 FILLER_0_34_107
*665 FILLER_0_34_171
*666 FILLER_0_34_177
*667 FILLER_0_34_2
*668 FILLER_0_34_241
*669 FILLER_0_34_247
*670 FILLER_0_34_311
*671 FILLER_0_34_317
*672 FILLER_0_34_34
*673 FILLER_0_34_37
*674 FILLER_0_35_136
*675 FILLER_0_35_142
*676 FILLER_0_35_2
*677 FILLER_0_35_206
*678 FILLER_0_35_212
*679 FILLER_0_35_276
*680 FILLER_0_35_282
*681 FILLER_0_35_346
*682 FILLER_0_35_348
*683 FILLER_0_35_66
*684 FILLER_0_35_72
*685 FILLER_0_36_101
*686 FILLER_0_36_107
*687 FILLER_0_36_171
*688 FILLER_0_36_177
*689 FILLER_0_36_2
*690 FILLER_0_36_241
*691 FILLER_0_36_247
*692 FILLER_0_36_311
*693 FILLER_0_36_317
*694 FILLER_0_36_34
*695 FILLER_0_36_37
*696 FILLER_0_37_136
*697 FILLER_0_37_142
*698 FILLER_0_37_2
*699 FILLER_0_37_206
*700 FILLER_0_37_212
*701 FILLER_0_37_276
*702 FILLER_0_37_282
*703 FILLER_0_37_346
*704 FILLER_0_37_348
*705 FILLER_0_37_66
*706 FILLER_0_37_72
*707 FILLER_0_38_101
*708 FILLER_0_38_107
*709 FILLER_0_38_171
*710 FILLER_0_38_177
*711 FILLER_0_38_2
*712 FILLER_0_38_241
*713 FILLER_0_38_247
*714 FILLER_0_38_311
*715 FILLER_0_38_317
*716 FILLER_0_38_34
*717 FILLER_0_38_37
*718 FILLER_0_39_136
*719 FILLER_0_39_142
*720 FILLER_0_39_2
*721 FILLER_0_39_206
*722 FILLER_0_39_212
*723 FILLER_0_39_276
*724 FILLER_0_39_282
*725 FILLER_0_39_346
*726 FILLER_0_39_348
*727 FILLER_0_39_66
*728 FILLER_0_39_72
*729 FILLER_0_3_136
*730 FILLER_0_3_142
*731 FILLER_0_3_2
*732 FILLER_0_3_206
*733 FILLER_0_3_212
*734 FILLER_0_3_276
*735 FILLER_0_3_282
*736 FILLER_0_3_346
*737 FILLER_0_3_348
*738 FILLER_0_3_66
*739 FILLER_0_3_72
*740 FILLER_0_40_101
*741 FILLER_0_40_107
*742 FILLER_0_40_171
*743 FILLER_0_40_177
*744 FILLER_0_40_2
*745 FILLER_0_40_241
*746 FILLER_0_40_247
*747 FILLER_0_40_311
*748 FILLER_0_40_317
*749 FILLER_0_40_34
*750 FILLER_0_40_37
*751 FILLER_0_41_136
*752 FILLER_0_41_142
*753 FILLER_0_41_2
*754 FILLER_0_41_206
*755 FILLER_0_41_212
*756 FILLER_0_41_276
*757 FILLER_0_41_282
*758 FILLER_0_41_346
*759 FILLER_0_41_348
*760 FILLER_0_41_66
*761 FILLER_0_41_72
*762 FILLER_0_42_101
*763 FILLER_0_42_107
*764 FILLER_0_42_165
*765 FILLER_0_42_173
*766 FILLER_0_42_177
*767 FILLER_0_42_2
*768 FILLER_0_42_241
*769 FILLER_0_42_247
*770 FILLER_0_42_311
*771 FILLER_0_42_317
*772 FILLER_0_42_34
*773 FILLER_0_42_37
*774 FILLER_0_43_136
*775 FILLER_0_43_142
*776 FILLER_0_43_195
*777 FILLER_0_43_2
*778 FILLER_0_43_203
*779 FILLER_0_43_207
*780 FILLER_0_43_209
*781 FILLER_0_43_238
*782 FILLER_0_43_270
*783 FILLER_0_43_278
*784 FILLER_0_43_282
*785 FILLER_0_43_346
*786 FILLER_0_43_348
*787 FILLER_0_43_66
*788 FILLER_0_43_72
*789 FILLER_0_44_104
*790 FILLER_0_44_138
*791 FILLER_0_44_142
*792 FILLER_0_44_172
*793 FILLER_0_44_174
*794 FILLER_0_44_2
*795 FILLER_0_44_201
*796 FILLER_0_44_203
*797 FILLER_0_44_236
*798 FILLER_0_44_240
*799 FILLER_0_44_274
*800 FILLER_0_44_308
*801 FILLER_0_44_342
*802 FILLER_0_44_346
*803 FILLER_0_44_348
*804 FILLER_0_44_36
*805 FILLER_0_44_70
*806 FILLER_0_4_101
*807 FILLER_0_4_107
*808 FILLER_0_4_171
*809 FILLER_0_4_177
*810 FILLER_0_4_2
*811 FILLER_0_4_241
*812 FILLER_0_4_247
*813 FILLER_0_4_311
*814 FILLER_0_4_317
*815 FILLER_0_4_34
*816 FILLER_0_4_37
*817 FILLER_0_5_136
*818 FILLER_0_5_142
*819 FILLER_0_5_2
*820 FILLER_0_5_206
*821 FILLER_0_5_212
*822 FILLER_0_5_276
*823 FILLER_0_5_282
*824 FILLER_0_5_346
*825 FILLER_0_5_348
*826 FILLER_0_5_66
*827 FILLER_0_5_72
*828 FILLER_0_6_101
*829 FILLER_0_6_107
*830 FILLER_0_6_171
*831 FILLER_0_6_177
*832 FILLER_0_6_2
*833 FILLER_0_6_241
*834 FILLER_0_6_247
*835 FILLER_0_6_311
*836 FILLER_0_6_317
*837 FILLER_0_6_34
*838 FILLER_0_6_37
*839 FILLER_0_7_136
*840 FILLER_0_7_142
*841 FILLER_0_7_2
*842 FILLER_0_7_206
*843 FILLER_0_7_212
*844 FILLER_0_7_276
*845 FILLER_0_7_282
*846 FILLER_0_7_346
*847 FILLER_0_7_348
*848 FILLER_0_7_66
*849 FILLER_0_7_72
*850 FILLER_0_8_101
*851 FILLER_0_8_107
*852 FILLER_0_8_171
*853 FILLER_0_8_177
*854 FILLER_0_8_2
*855 FILLER_0_8_241
*856 FILLER_0_8_247
*857 FILLER_0_8_311
*858 FILLER_0_8_317
*859 FILLER_0_8_34
*860 FILLER_0_8_37
*861 FILLER_0_9_136
*862 FILLER_0_9_142
*863 FILLER_0_9_2
*864 FILLER_0_9_206
*865 FILLER_0_9_212
*866 FILLER_0_9_276
*867 FILLER_0_9_282
*868 FILLER_0_9_346
*869 FILLER_0_9_348
*870 FILLER_0_9_66
*871 FILLER_0_9_72
*872 PHY_EDGE_ROW_0_Left_45
*873 PHY_EDGE_ROW_0_Right_0
*874 PHY_EDGE_ROW_10_Left_55
*875 PHY_EDGE_ROW_10_Right_10
*876 PHY_EDGE_ROW_11_Left_56
*877 PHY_EDGE_ROW_11_Right_11
*878 PHY_EDGE_ROW_12_Left_57
*879 PHY_EDGE_ROW_12_Right_12
*880 PHY_EDGE_ROW_13_Left_58
*881 PHY_EDGE_ROW_13_Right_13
*882 PHY_EDGE_ROW_14_Left_59
*883 PHY_EDGE_ROW_14_Right_14
*884 PHY_EDGE_ROW_15_Left_60
*885 PHY_EDGE_ROW_15_Right_15
*886 PHY_EDGE_ROW_16_Left_61
*887 PHY_EDGE_ROW_16_Right_16
*888 PHY_EDGE_ROW_17_Left_62
*889 PHY_EDGE_ROW_17_Right_17
*890 PHY_EDGE_ROW_18_Left_63
*891 PHY_EDGE_ROW_18_Right_18
*892 PHY_EDGE_ROW_19_Left_64
*893 PHY_EDGE_ROW_19_Right_19
*894 PHY_EDGE_ROW_1_Left_46
*895 PHY_EDGE_ROW_1_Right_1
*896 PHY_EDGE_ROW_20_Left_65
*897 PHY_EDGE_ROW_20_Right_20
*898 PHY_EDGE_ROW_21_Left_66
*899 PHY_EDGE_ROW_21_Right_21
*900 PHY_EDGE_ROW_22_Left_67
*901 PHY_EDGE_ROW_22_Right_22
*902 PHY_EDGE_ROW_23_Left_68
*903 PHY_EDGE_ROW_23_Right_23
*904 PHY_EDGE_ROW_24_Left_69
*905 PHY_EDGE_ROW_24_Right_24
*906 PHY_EDGE_ROW_25_Left_70
*907 PHY_EDGE_ROW_25_Right_25
*908 PHY_EDGE_ROW_26_Left_71
*909 PHY_EDGE_ROW_26_Right_26
*910 PHY_EDGE_ROW_27_Left_72
*911 PHY_EDGE_ROW_27_Right_27
*912 PHY_EDGE_ROW_28_Left_73
*913 PHY_EDGE_ROW_28_Right_28
*914 PHY_EDGE_ROW_29_Left_74
*915 PHY_EDGE_ROW_29_Right_29
*916 PHY_EDGE_ROW_2_Left_47
*917 PHY_EDGE_ROW_2_Right_2
*918 PHY_EDGE_ROW_30_Left_75
*919 PHY_EDGE_ROW_30_Right_30
*920 PHY_EDGE_ROW_31_Left_76
*921 PHY_EDGE_ROW_31_Right_31
*922 PHY_EDGE_ROW_32_Left_77
*923 PHY_EDGE_ROW_32_Right_32
*924 PHY_EDGE_ROW_33_Left_78
*925 PHY_EDGE_ROW_33_Right_33
*926 PHY_EDGE_ROW_34_Left_79
*927 PHY_EDGE_ROW_34_Right_34
*928 PHY_EDGE_ROW_35_Left_80
*929 PHY_EDGE_ROW_35_Right_35
*930 PHY_EDGE_ROW_36_Left_81
*931 PHY_EDGE_ROW_36_Right_36
*932 PHY_EDGE_ROW_37_Left_82
*933 PHY_EDGE_ROW_37_Right_37
*934 PHY_EDGE_ROW_38_Left_83
*935 PHY_EDGE_ROW_38_Right_38
*936 PHY_EDGE_ROW_39_Left_84
*937 PHY_EDGE_ROW_39_Right_39
*938 PHY_EDGE_ROW_3_Left_48
*939 PHY_EDGE_ROW_3_Right_3
*940 PHY_EDGE_ROW_40_Left_85
*941 PHY_EDGE_ROW_40_Right_40
*942 PHY_EDGE_ROW_41_Left_86
*943 PHY_EDGE_ROW_41_Right_41
*944 PHY_EDGE_ROW_42_Left_87
*945 PHY_EDGE_ROW_42_Right_42
*946 PHY_EDGE_ROW_43_Left_88
*947 PHY_EDGE_ROW_43_Right_43
*948 PHY_EDGE_ROW_44_Left_89
*949 PHY_EDGE_ROW_44_Right_44
*950 PHY_EDGE_ROW_4_Left_49
*951 PHY_EDGE_ROW_4_Right_4
*952 PHY_EDGE_ROW_5_Left_50
*953 PHY_EDGE_ROW_5_Right_5
*954 PHY_EDGE_ROW_6_Left_51
*955 PHY_EDGE_ROW_6_Right_6
*956 PHY_EDGE_ROW_7_Left_52
*957 PHY_EDGE_ROW_7_Right_7
*958 PHY_EDGE_ROW_8_Left_53
*959 PHY_EDGE_ROW_8_Right_8
*960 PHY_EDGE_ROW_9_Left_54
*961 PHY_EDGE_ROW_9_Right_9
*962 TAP_TAPCELL_ROW_0_90
*963 TAP_TAPCELL_ROW_0_91
*964 TAP_TAPCELL_ROW_0_92
*965 TAP_TAPCELL_ROW_0_93
*966 TAP_TAPCELL_ROW_0_94
*967 TAP_TAPCELL_ROW_0_95
*968 TAP_TAPCELL_ROW_0_96
*969 TAP_TAPCELL_ROW_0_97
*970 TAP_TAPCELL_ROW_0_98
*971 TAP_TAPCELL_ROW_0_99
*972 TAP_TAPCELL_ROW_10_140
*973 TAP_TAPCELL_ROW_10_141
*974 TAP_TAPCELL_ROW_10_142
*975 TAP_TAPCELL_ROW_10_143
*976 TAP_TAPCELL_ROW_10_144
*977 TAP_TAPCELL_ROW_11_145
*978 TAP_TAPCELL_ROW_11_146
*979 TAP_TAPCELL_ROW_11_147
*980 TAP_TAPCELL_ROW_11_148
*981 TAP_TAPCELL_ROW_12_149
*982 TAP_TAPCELL_ROW_12_150
*983 TAP_TAPCELL_ROW_12_151
*984 TAP_TAPCELL_ROW_12_152
*985 TAP_TAPCELL_ROW_12_153
*986 TAP_TAPCELL_ROW_13_154
*987 TAP_TAPCELL_ROW_13_155
*988 TAP_TAPCELL_ROW_13_156
*989 TAP_TAPCELL_ROW_13_157
*990 TAP_TAPCELL_ROW_14_158
*991 TAP_TAPCELL_ROW_14_159
*992 TAP_TAPCELL_ROW_14_160
*993 TAP_TAPCELL_ROW_14_161
*994 TAP_TAPCELL_ROW_14_162
*995 TAP_TAPCELL_ROW_15_163
*996 TAP_TAPCELL_ROW_15_164
*997 TAP_TAPCELL_ROW_15_165
*998 TAP_TAPCELL_ROW_15_166
*999 TAP_TAPCELL_ROW_16_167
*1000 TAP_TAPCELL_ROW_16_168
*1001 TAP_TAPCELL_ROW_16_169
*1002 TAP_TAPCELL_ROW_16_170
*1003 TAP_TAPCELL_ROW_16_171
*1004 TAP_TAPCELL_ROW_17_172
*1005 TAP_TAPCELL_ROW_17_173
*1006 TAP_TAPCELL_ROW_17_174
*1007 TAP_TAPCELL_ROW_17_175
*1008 TAP_TAPCELL_ROW_18_176
*1009 TAP_TAPCELL_ROW_18_177
*1010 TAP_TAPCELL_ROW_18_178
*1011 TAP_TAPCELL_ROW_18_179
*1012 TAP_TAPCELL_ROW_18_180
*1013 TAP_TAPCELL_ROW_19_181
*1014 TAP_TAPCELL_ROW_19_182
*1015 TAP_TAPCELL_ROW_19_183
*1016 TAP_TAPCELL_ROW_19_184
*1017 TAP_TAPCELL_ROW_1_100
*1018 TAP_TAPCELL_ROW_1_101
*1019 TAP_TAPCELL_ROW_1_102
*1020 TAP_TAPCELL_ROW_1_103
*1021 TAP_TAPCELL_ROW_20_185
*1022 TAP_TAPCELL_ROW_20_186
*1023 TAP_TAPCELL_ROW_20_187
*1024 TAP_TAPCELL_ROW_20_188
*1025 TAP_TAPCELL_ROW_20_189
*1026 TAP_TAPCELL_ROW_21_190
*1027 TAP_TAPCELL_ROW_21_191
*1028 TAP_TAPCELL_ROW_21_192
*1029 TAP_TAPCELL_ROW_21_193
*1030 TAP_TAPCELL_ROW_22_194
*1031 TAP_TAPCELL_ROW_22_195
*1032 TAP_TAPCELL_ROW_22_196
*1033 TAP_TAPCELL_ROW_22_197
*1034 TAP_TAPCELL_ROW_22_198
*1035 TAP_TAPCELL_ROW_23_199
*1036 TAP_TAPCELL_ROW_23_200
*1037 TAP_TAPCELL_ROW_23_201
*1038 TAP_TAPCELL_ROW_23_202
*1039 TAP_TAPCELL_ROW_24_203
*1040 TAP_TAPCELL_ROW_24_204
*1041 TAP_TAPCELL_ROW_24_205
*1042 TAP_TAPCELL_ROW_24_206
*1043 TAP_TAPCELL_ROW_24_207
*1044 TAP_TAPCELL_ROW_25_208
*1045 TAP_TAPCELL_ROW_25_209
*1046 TAP_TAPCELL_ROW_25_210
*1047 TAP_TAPCELL_ROW_25_211
*1048 TAP_TAPCELL_ROW_26_212
*1049 TAP_TAPCELL_ROW_26_213
*1050 TAP_TAPCELL_ROW_26_214
*1051 TAP_TAPCELL_ROW_26_215
*1052 TAP_TAPCELL_ROW_26_216
*1053 TAP_TAPCELL_ROW_27_217
*1054 TAP_TAPCELL_ROW_27_218
*1055 TAP_TAPCELL_ROW_27_219
*1056 TAP_TAPCELL_ROW_27_220
*1057 TAP_TAPCELL_ROW_28_221
*1058 TAP_TAPCELL_ROW_28_222
*1059 TAP_TAPCELL_ROW_28_223
*1060 TAP_TAPCELL_ROW_28_224
*1061 TAP_TAPCELL_ROW_28_225
*1062 TAP_TAPCELL_ROW_29_226
*1063 TAP_TAPCELL_ROW_29_227
*1064 TAP_TAPCELL_ROW_29_228
*1065 TAP_TAPCELL_ROW_29_229
*1066 TAP_TAPCELL_ROW_2_104
*1067 TAP_TAPCELL_ROW_2_105
*1068 TAP_TAPCELL_ROW_2_106
*1069 TAP_TAPCELL_ROW_2_107
*1070 TAP_TAPCELL_ROW_2_108
*1071 TAP_TAPCELL_ROW_30_230
*1072 TAP_TAPCELL_ROW_30_231
*1073 TAP_TAPCELL_ROW_30_232
*1074 TAP_TAPCELL_ROW_30_233
*1075 TAP_TAPCELL_ROW_30_234
*1076 TAP_TAPCELL_ROW_31_235
*1077 TAP_TAPCELL_ROW_31_236
*1078 TAP_TAPCELL_ROW_31_237
*1079 TAP_TAPCELL_ROW_31_238
*1080 TAP_TAPCELL_ROW_32_239
*1081 TAP_TAPCELL_ROW_32_240
*1082 TAP_TAPCELL_ROW_32_241
*1083 TAP_TAPCELL_ROW_32_242
*1084 TAP_TAPCELL_ROW_32_243
*1085 TAP_TAPCELL_ROW_33_244
*1086 TAP_TAPCELL_ROW_33_245
*1087 TAP_TAPCELL_ROW_33_246
*1088 TAP_TAPCELL_ROW_33_247
*1089 TAP_TAPCELL_ROW_34_248
*1090 TAP_TAPCELL_ROW_34_249
*1091 TAP_TAPCELL_ROW_34_250
*1092 TAP_TAPCELL_ROW_34_251
*1093 TAP_TAPCELL_ROW_34_252
*1094 TAP_TAPCELL_ROW_35_253
*1095 TAP_TAPCELL_ROW_35_254
*1096 TAP_TAPCELL_ROW_35_255
*1097 TAP_TAPCELL_ROW_35_256
*1098 TAP_TAPCELL_ROW_36_257
*1099 TAP_TAPCELL_ROW_36_258
*1100 TAP_TAPCELL_ROW_36_259
*1101 TAP_TAPCELL_ROW_36_260
*1102 TAP_TAPCELL_ROW_36_261
*1103 TAP_TAPCELL_ROW_37_262
*1104 TAP_TAPCELL_ROW_37_263
*1105 TAP_TAPCELL_ROW_37_264
*1106 TAP_TAPCELL_ROW_37_265
*1107 TAP_TAPCELL_ROW_38_266
*1108 TAP_TAPCELL_ROW_38_267
*1109 TAP_TAPCELL_ROW_38_268
*1110 TAP_TAPCELL_ROW_38_269
*1111 TAP_TAPCELL_ROW_38_270
*1112 TAP_TAPCELL_ROW_39_271
*1113 TAP_TAPCELL_ROW_39_272
*1114 TAP_TAPCELL_ROW_39_273
*1115 TAP_TAPCELL_ROW_39_274
*1116 TAP_TAPCELL_ROW_3_109
*1117 TAP_TAPCELL_ROW_3_110
*1118 TAP_TAPCELL_ROW_3_111
*1119 TAP_TAPCELL_ROW_3_112
*1120 TAP_TAPCELL_ROW_40_275
*1121 TAP_TAPCELL_ROW_40_276
*1122 TAP_TAPCELL_ROW_40_277
*1123 TAP_TAPCELL_ROW_40_278
*1124 TAP_TAPCELL_ROW_40_279
*1125 TAP_TAPCELL_ROW_41_280
*1126 TAP_TAPCELL_ROW_41_281
*1127 TAP_TAPCELL_ROW_41_282
*1128 TAP_TAPCELL_ROW_41_283
*1129 TAP_TAPCELL_ROW_42_284
*1130 TAP_TAPCELL_ROW_42_285
*1131 TAP_TAPCELL_ROW_42_286
*1132 TAP_TAPCELL_ROW_42_287
*1133 TAP_TAPCELL_ROW_42_288
*1134 TAP_TAPCELL_ROW_43_289
*1135 TAP_TAPCELL_ROW_43_290
*1136 TAP_TAPCELL_ROW_43_291
*1137 TAP_TAPCELL_ROW_43_292
*1138 TAP_TAPCELL_ROW_44_293
*1139 TAP_TAPCELL_ROW_44_294
*1140 TAP_TAPCELL_ROW_44_295
*1141 TAP_TAPCELL_ROW_44_296
*1142 TAP_TAPCELL_ROW_44_297
*1143 TAP_TAPCELL_ROW_44_298
*1144 TAP_TAPCELL_ROW_44_299
*1145 TAP_TAPCELL_ROW_44_300
*1146 TAP_TAPCELL_ROW_44_301
*1147 TAP_TAPCELL_ROW_44_302
*1148 TAP_TAPCELL_ROW_4_113
*1149 TAP_TAPCELL_ROW_4_114
*1150 TAP_TAPCELL_ROW_4_115
*1151 TAP_TAPCELL_ROW_4_116
*1152 TAP_TAPCELL_ROW_4_117
*1153 TAP_TAPCELL_ROW_5_118
*1154 TAP_TAPCELL_ROW_5_119
*1155 TAP_TAPCELL_ROW_5_120
*1156 TAP_TAPCELL_ROW_5_121
*1157 TAP_TAPCELL_ROW_6_122
*1158 TAP_TAPCELL_ROW_6_123
*1159 TAP_TAPCELL_ROW_6_124
*1160 TAP_TAPCELL_ROW_6_125
*1161 TAP_TAPCELL_ROW_6_126
*1162 TAP_TAPCELL_ROW_7_127
*1163 TAP_TAPCELL_ROW_7_128
*1164 TAP_TAPCELL_ROW_7_129
*1165 TAP_TAPCELL_ROW_7_130
*1166 TAP_TAPCELL_ROW_8_131
*1167 TAP_TAPCELL_ROW_8_132
*1168 TAP_TAPCELL_ROW_8_133
*1169 TAP_TAPCELL_ROW_8_134
*1170 TAP_TAPCELL_ROW_8_135
*1171 TAP_TAPCELL_ROW_9_136
*1172 TAP_TAPCELL_ROW_9_137
*1173 TAP_TAPCELL_ROW_9_138
*1174 TAP_TAPCELL_ROW_9_139
*1175 _101_
*1176 _102_
*1177 _103_
*1178 _104_
*1179 _105_
*1180 _106_
*1181 _107_
*1182 _108_
*1183 _109_
*1184 _110_
*1185 _111_
*1186 _112_
*1187 _113_
*1188 _114_
*1189 _115_
*1190 _116_
*1191 _117_
*1192 _118_
*1193 _119_
*1194 _120_
*1195 _121_
*1196 _122_
*1197 _123_
*1198 _124_
*1199 _125_
*1200 _126_
*1201 _127_
*1202 _128_
*1203 _129_
*1204 _130_
*1205 _131_
*1206 _132_
*1207 _133_
*1208 _134_
*1209 _135_
*1210 _136_
*1211 _137_
*1212 _138_
*1213 _139_
*1214 _140_
*1215 _141_
*1216 _142_
*1217 _143_
*1218 _144_
*1219 _145_
*1220 _146_
*1221 _147_
*1222 _148_
*1223 _149_
*1224 _150_
*1225 _151_
*1226 _152_
*1227 _153_
*1228 _154_
*1229 _155_
*1230 _156_
*1231 _157_
*1232 _158_
*1233 _159_
*1234 _160_
*1235 _161_
*1236 _162_
*1237 _163_
*1238 _164_
*1239 _165_
*1240 _166_
*1241 _167_
*1242 _168_
*1243 _169_
*1244 _170_
*1245 _171_
*1246 _172_
*1247 _173_
*1248 _174_
*1249 _175_
*1250 _176_
*1251 _177_
*1252 _178_
*1253 _179_
*1254 _180_
*1255 _181_
*1256 _182_
*1257 _183_
*1258 _184_
*1259 _185_
*1260 _186_
*1261 _187_
*1262 _188_
*1263 _189_
*1264 _190_
*1265 _191_
*1266 _192_
*1267 _193_
*1268 _194_
*1269 _195_
*1270 _196_
*1271 _197_
*1272 _198_
*1273 _199_
*1274 _200_
*1275 _201_
*1276 _202_
*1277 _203_
*1278 _204_
*1279 _205_
*1280 _206_
*1281 _207_
*1282 _208_
*1283 _209_
*1284 _210_
*1285 _211_
*1286 _212_
*1287 _213_
*1288 _214_
*1289 _215_
*1290 _216_
*1291 _217_
*1292 _218_
*1293 _219_
*1294 _220_
*1295 _221_
*1296 _222_
*1297 _223_
*1298 _224_
*1299 _225_
*1300 _226_
*1301 _229_
*1302 _230_
*1303 _231_
*1304 clkbuf_0_clk
*1305 clkbuf_1_0__f_clk
*1306 clkbuf_1_1__f_clk
*1307 ita56_25
*1308 ita56_26
*1309 output1
*1310 output10
*1311 output11
*1312 output12
*1313 output13
*1314 output14
*1315 output15
*1316 output16
*1317 output17
*1318 output18
*1319 output19
*1320 output2
*1321 output20
*1322 output21
*1323 output22
*1324 output23
*1325 output24
*1326 output3
*1327 output4
*1328 output5
*1329 output6
*1330 output7
*1331 output8
*1332 output9

*PORTS
clk I
segm[0] O
segm[10] O
segm[11] O
segm[12] O
segm[13] O
segm[1] O
segm[2] O
segm[3] O
segm[4] O
segm[5] O
segm[6] O
segm[7] O
segm[8] O
segm[9] O
sel[0] O
sel[10] O
sel[11] O
sel[1] O
sel[2] O
sel[3] O
sel[4] O
sel[5] O
sel[6] O
sel[7] O
sel[8] O
sel[9] O

*D_NET *1 0.0118976
*CONN
*P clk I
*I *1304:I I *D gf180mcu_fd_sc_mcu7t5v0__clkbuf_16
*I *191:I I *D gf180mcu_fd_sc_mcu7t5v0__antenna
*CAP
1 clk 0.00505776
2 *1304:I 0.000261035
3 *191:I 0
4 *1:17 0.0053188
5 *1304:I *1207:A1 2.57058e-06
6 *1304:I *1208:A1 0
7 *1304:I *96:19 0
8 *1:17 *1180:I 9.88736e-06
9 *1:17 *1191:I 0.00013415
10 *1:17 *1194:I 4.61878e-05
11 *1:17 *1205:A2 3.32987e-05
12 *1:17 *1224:A1 0
13 *1:17 *1280:D 0
14 *1:17 *1323:I 9.26705e-05
15 *1:17 *64:10 0.000332205
16 *1:17 *96:19 0
17 *1:17 *97:19 0.000157615
18 *1:17 *106:8 4.02664e-05
19 *1:17 *115:18 1.48677e-05
20 *1:17 *132:16 0.000396297
*RES
1 clk *1:17 48.118 
2 *1:17 *191:I 4.5 
3 *1:17 *1304:I 5.868 
*END

*D_NET *2 0.00200415
*CONN
*P segm[0] O
*I *1309:Z O *D gf180mcu_fd_sc_mcu7t5v0__buf_8
*CAP
1 segm[0] 0.000875876
2 *1309:Z 0.000875876
3 segm[0] sel[11] 0.000205255
4 segm[0] *1315:I 4.71416e-05
*RES
1 *1309:Z segm[0] 19.846 
*END

*D_NET *3 0.00071058
*CONN
*P segm[10] O
*I *1320:Z O *D gf180mcu_fd_sc_mcu7t5v0__buf_8
*CAP
1 segm[10] 0.000326594
2 *1320:Z 0.000326594
3 segm[10] segm[9] 5.73926e-05
*RES
1 *1320:Z segm[10] 11.09 
*END

*D_NET *4 0.00258479
*CONN
*P segm[11] O
*I *1326:Z O *D gf180mcu_fd_sc_mcu7t5v0__buf_8
*CAP
1 segm[11] 0.00102614
2 *1326:Z 0.00102614
3 segm[11] segm[12] 0.000122297
4 segm[11] *1316:I 0.000261333
5 segm[11] *1327:I 0.000148879
*RES
1 *1326:Z segm[11] 21.366 
*END

*D_NET *5 0.00236742
*CONN
*P segm[12] O
*I *1327:Z O *D gf180mcu_fd_sc_mcu7t5v0__buf_8
*CAP
1 segm[12] 0.000930582
2 *1327:Z 0.000930582
3 segm[12] sel[1] 0.00030796
4 segm[12] *1316:I 7.59985e-05
5 segm[11] segm[12] 0.000122297
*RES
1 *1327:Z segm[12] 20.91 
*END

*D_NET *6 0.000574926
*CONN
*P segm[13] O
*I *1328:Z O *D gf180mcu_fd_sc_mcu7t5v0__buf_8
*CAP
1 segm[13] 0.00025523
2 *1328:Z 0.00025523
3 segm[13] segm[8] 6.44669e-05
*RES
1 *1328:Z segm[13] 10.938 
*END

*D_NET *7 0.0014495
*CONN
*P segm[1] O
*I *1329:Z O *D gf180mcu_fd_sc_mcu7t5v0__buf_8
*CAP
1 segm[1] 0.000657177
2 *1329:Z 0.000657177
3 segm[1] sel[3] 0.00013515
*RES
1 *1329:Z segm[1] 9.326 
*END

*D_NET *8 0.00187345
*CONN
*P segm[2] O
*I *1307:ZN O *D gf180mcu_fd_sc_mcu7t5v0__tiel
*CAP
1 segm[2] 0.0009327
2 *1307:ZN 0.0009327
3 segm[2] segm[3] 8.05328e-06
4 segm[2] *1325:I 0
*RES
1 *1307:ZN segm[2] 19.846 
*END

*D_NET *9 0.00225846