*SPEF "ieee 1481-1999"
*DESIGN "ita55"
*DATE "11:11:11 Fri 11 11, 1111"
*VENDOR "OpenRCX"
*PROGRAM "Parallel Extraction"
*VERSION "1.0"
*DESIGN_FLOW "NAME_SCOPE LOCAL" "PIN_CAP NONE"
*DIVIDER /
*DELIMITER :
*BUS_DELIMITER []
*T_UNIT 1 NS
*C_UNIT 1 PF
*R_UNIT 1 OHM
*L_UNIT 1 HENRY

*NAME_MAP
*1 clk
*2 net26
*3 segm[10]
*4 segm[11]
*5 segm[12]
*6 segm[13]
*7 segm[1]
*8 segm[2]
*9 segm[3]
*10 segm[4]
*11 segm[5]
*12 segm[6]
*13 segm[7]
*14 segm[8]
*15 segm[9]
*16 sel[0]
*17 sel[10]
*18 sel[11]
*19 sel[1]
*20 sel[2]
*21 sel[3]
*22 sel[4]
*23 sel[5]
*24 sel[6]
*25 sel[7]
*26 sel[8]
*27 sel[9]
*30 _000_
*31 _001_
*32 _002_
*33 _003_
*34 _004_
*35 _005_
*36 _006_
*37 _007_
*38 _008_
*39 _009_
*40 _010_
*41 _011_
*42 _012_
*43 _013_
*44 _014_
*45 _015_
*46 _016_
*47 _017_
*48 _018_
*49 _019_
*50 _020_
*51 _021_
*52 _022_
*53 _023_
*54 _024_
*55 _025_
*56 _026_
*57 _027_
*58 _028_
*59 _029_
*60 _030_
*61 _031_
*62 _032_
*63 _033_
*64 _034_
*65 _035_
*66 _036_
*67 _037_
*68 _038_
*69 _039_
*70 _040_
*71 _041_
*72 _042_
*73 _043_
*74 _044_
*75 _045_
*76 _046_
*77 _047_
*78 _048_
*79 _049_
*80 _050_
*81 _051_
*82 _052_
*83 _053_
*84 _054_
*85 _055_
*86 _056_
*87 _057_
*88 _058_
*89 _059_
*90 _060_
*91 _061_
*92 _062_
*93 _063_
*94 _064_
*95 _065_
*96 _066_
*97 _067_
*98 _068_
*99 _069_
*100 _070_
*101 _071_
*102 _072_
*103 _073_
*104 _074_
*105 _075_
*106 _076_
*107 _077_
*108 _078_
*109 _079_
*110 _080_
*111 _081_
*112 _082_
*113 _083_
*114 _084_
*115 _085_
*116 _086_
*117 _087_
*118 _088_
*119 _089_
*120 _090_
*121 _091_
*122 clknet_0_clk
*123 clknet_1_0__leaf_clk
*124 clknet_1_1__leaf_clk
*125 dut55\.count\[0\]
*126 dut55\.count\[1\]
*127 dut55\.count\[2\]
*128 dut55\.count\[3\]
*129 net1
*130 net10
*131 net11
*132 net12
*133 net13
*134 net14
*135 net15
*136 net16
*137 net17
*138 net18
*139 net19
*140 net2
*141 net20
*142 net21
*143 net22
*144 net23
*145 net24
*146 net25
*147 net3
*148 net4
*149 net5
*150 net6
*151 net7
*152 net8
*153 net9
*154 ANTENNA__153__C
*155 ANTENNA__184__CLK
*156 ANTENNA__185__CLK
*157 ANTENNA__186__CLK
*158 ANTENNA__187__CLK
*159 ANTENNA__188__CLK
*160 ANTENNA__189__CLK
*161 ANTENNA__190__CLK
*162 ANTENNA__191__CLK
*163 ANTENNA__192__CLK
*164 ANTENNA__193__CLK
*165 ANTENNA__194__CLK
*166 ANTENNA__195__CLK
*167 ANTENNA__196__CLK
*168 ANTENNA__197__CLK
*169 ANTENNA__198__CLK
*170 ANTENNA__199__CLK
*171 ANTENNA__200__CLK
*172 ANTENNA__201__CLK
*173 ANTENNA__202__CLK
*174 ANTENNA__203__CLK
*175 ANTENNA__204__CLK
*176 ANTENNA__205__CLK
*177 ANTENNA__206__CLK
*178 ANTENNA__207__CLK
*179 ANTENNA_clkbuf_0_clk_I
*180 ANTENNA_output5_I
*181 FILLER_0_0_104
*182 FILLER_0_0_138
*183 FILLER_0_0_142
*184 FILLER_0_0_172
*185 FILLER_0_0_174
*186 FILLER_0_0_2
*187 FILLER_0_0_201
*188 FILLER_0_0_203
*189 FILLER_0_0_232
*190 FILLER_0_0_236
*191 FILLER_0_0_240
*192 FILLER_0_0_274
*193 FILLER_0_0_308
*194 FILLER_0_0_342
*195 FILLER_0_0_346
*196 FILLER_0_0_348
*197 FILLER_0_0_36
*198 FILLER_0_0_70
*199 FILLER_0_10_101
*200 FILLER_0_10_107
*201 FILLER_0_10_171
*202 FILLER_0_10_177
*203 FILLER_0_10_2
*204 FILLER_0_10_241
*205 FILLER_0_10_247
*206 FILLER_0_10_311
*207 FILLER_0_10_317
*208 FILLER_0_10_34
*209 FILLER_0_10_37
*210 FILLER_0_11_136
*211 FILLER_0_11_142
*212 FILLER_0_11_176
*213 FILLER_0_11_2
*214 FILLER_0_11_208
*215 FILLER_0_11_212
*216 FILLER_0_11_276
*217 FILLER_0_11_282
*218 FILLER_0_11_346
*219 FILLER_0_11_348
*220 FILLER_0_11_66
*221 FILLER_0_11_72
*222 FILLER_0_12_101
*223 FILLER_0_12_107
*224 FILLER_0_12_139
*225 FILLER_0_12_143
*226 FILLER_0_12_174
*227 FILLER_0_12_177
*228 FILLER_0_12_179
*229 FILLER_0_12_188
*230 FILLER_0_12_2
*231 FILLER_0_12_220
*232 FILLER_0_12_236
*233 FILLER_0_12_244
*234 FILLER_0_12_247
*235 FILLER_0_12_311
*236 FILLER_0_12_317
*237 FILLER_0_12_34
*238 FILLER_0_12_37
*239 FILLER_0_13_104
*240 FILLER_0_13_108
*241 FILLER_0_13_110
*242 FILLER_0_13_142
*243 FILLER_0_13_146
*244 FILLER_0_13_171
*245 FILLER_0_13_175
*246 FILLER_0_13_2
*247 FILLER_0_13_205
*248 FILLER_0_13_209
*249 FILLER_0_13_212
*250 FILLER_0_13_276
*251 FILLER_0_13_282
*252 FILLER_0_13_346
*253 FILLER_0_13_348
*254 FILLER_0_13_66
*255 FILLER_0_13_72
*256 FILLER_0_14_101
*257 FILLER_0_14_107
*258 FILLER_0_14_123
*259 FILLER_0_14_127
*260 FILLER_0_14_158
*261 FILLER_0_14_174
*262 FILLER_0_14_177
*263 FILLER_0_14_179
*264 FILLER_0_14_2
*265 FILLER_0_14_219
*266 FILLER_0_14_235
*267 FILLER_0_14_243
*268 FILLER_0_14_247
*269 FILLER_0_14_311
*270 FILLER_0_14_317
*271 FILLER_0_14_34
*272 FILLER_0_14_37
*273 FILLER_0_15_136
*274 FILLER_0_15_142
*275 FILLER_0_15_160
*276 FILLER_0_15_164
*277 FILLER_0_15_172
*278 FILLER_0_15_176
*279 FILLER_0_15_184
*280 FILLER_0_15_186
*281 FILLER_0_15_192
*282 FILLER_0_15_2
*283 FILLER_0_15_208
*284 FILLER_0_15_218
*285 FILLER_0_15_250
*286 FILLER_0_15_266
*287 FILLER_0_15_274
*288 FILLER_0_15_278
*289 FILLER_0_15_282
*290 FILLER_0_15_346
*291 FILLER_0_15_348
*292 FILLER_0_15_66
*293 FILLER_0_15_72
*294 FILLER_0_16_101
*295 FILLER_0_16_107
*296 FILLER_0_16_139
*297 FILLER_0_16_143
*298 FILLER_0_16_152
*299 FILLER_0_16_154
*300 FILLER_0_16_161
*301 FILLER_0_16_177
*302 FILLER_0_16_179
*303 FILLER_0_16_195
*304 FILLER_0_16_2
*305 FILLER_0_16_230
*306 FILLER_0_16_238
*307 FILLER_0_16_242
*308 FILLER_0_16_244
*309 FILLER_0_16_247
*310 FILLER_0_16_311
*311 FILLER_0_16_317
*312 FILLER_0_16_34
*313 FILLER_0_16_37
*314 FILLER_0_17_104
*315 FILLER_0_17_108
*316 FILLER_0_17_110
*317 FILLER_0_17_142
*318 FILLER_0_17_146
*319 FILLER_0_17_150
*320 FILLER_0_17_2
*321 FILLER_0_17_209
*322 FILLER_0_17_212
*323 FILLER_0_17_276
*324 FILLER_0_17_282
*325 FILLER_0_17_346
*326 FILLER_0_17_348
*327 FILLER_0_17_66
*328 FILLER_0_17_72
*329 FILLER_0_18_101
*330 FILLER_0_18_113
*331 FILLER_0_18_166
*332 FILLER_0_18_170
*333 FILLER_0_18_197
*334 FILLER_0_18_2
*335 FILLER_0_18_213
*336 FILLER_0_18_217
*337 FILLER_0_18_223
*338 FILLER_0_18_239
*339 FILLER_0_18_243
*340 FILLER_0_18_247
*341 FILLER_0_18_311
*342 FILLER_0_18_317
*343 FILLER_0_18_321
*344 FILLER_0_18_34
*345 FILLER_0_18_37
*346 FILLER_0_19_124
*347 FILLER_0_19_142
*348 FILLER_0_19_144
*349 FILLER_0_19_185
*350 FILLER_0_19_2
*351 FILLER_0_19_203
*352 FILLER_0_19_207
*353 FILLER_0_19_209
*354 FILLER_0_19_212
*355 FILLER_0_19_276
*356 FILLER_0_19_282
*357 FILLER_0_19_346
*358 FILLER_0_19_348
*359 FILLER_0_19_66
*360 FILLER_0_19_72
*361 FILLER_0_19_88
*362 FILLER_0_19_92
*363 FILLER_0_19_94
*364 FILLER_0_1_136
*365 FILLER_0_1_142
*366 FILLER_0_1_195
*367 FILLER_0_1_2
*368 FILLER_0_1_203
*369 FILLER_0_1_207
*370 FILLER_0_1_209
*371 FILLER_0_1_212
*372 FILLER_0_1_216
*373 FILLER_0_1_243
*374 FILLER_0_1_275
*375 FILLER_0_1_279
*376 FILLER_0_1_282
*377 FILLER_0_1_346
*378 FILLER_0_1_348
*379 FILLER_0_1_66
*380 FILLER_0_1_72
*381 FILLER_0_20_101
*382 FILLER_0_20_107
*383 FILLER_0_20_123
*384 FILLER_0_20_127
*385 FILLER_0_20_132
*386 FILLER_0_20_154
*387 FILLER_0_20_172
*388 FILLER_0_20_174
*389 FILLER_0_20_177
*390 FILLER_0_20_2
*391 FILLER_0_20_207
*392 FILLER_0_20_242
*393 FILLER_0_20_244
*394 FILLER_0_20_247
*395 FILLER_0_20_311
*396 FILLER_0_20_317
*397 FILLER_0_20_34
*398 FILLER_0_20_37
*399 FILLER_0_21_125
*400 FILLER_0_21_138
*401 FILLER_0_21_142
*402 FILLER_0_21_144
*403 FILLER_0_21_153
*404 FILLER_0_21_2
*405 FILLER_0_21_207
*406 FILLER_0_21_209
*407 FILLER_0_21_212
*408 FILLER_0_21_248
*409 FILLER_0_21_282
*410 FILLER_0_21_314
*411 FILLER_0_21_322
*412 FILLER_0_21_66
*413 FILLER_0_21_72
*414 FILLER_0_21_88
*415 FILLER_0_22_102
*416 FILLER_0_22_104
*417 FILLER_0_22_107
*418 FILLER_0_22_123
*419 FILLER_0_22_125
*420 FILLER_0_22_145
*421 FILLER_0_22_147
*422 FILLER_0_22_163
*423 FILLER_0_22_165
*424 FILLER_0_22_174
*425 FILLER_0_22_177
*426 FILLER_0_22_199
*427 FILLER_0_22_2
*428 FILLER_0_22_207
*429 FILLER_0_22_211
*430 FILLER_0_22_214
*431 FILLER_0_22_237
*432 FILLER_0_22_247
*433 FILLER_0_22_311
*434 FILLER_0_22_317
*435 FILLER_0_22_321
*436 FILLER_0_22_34
*437 FILLER_0_22_37
*438 FILLER_0_22_69
*439 FILLER_0_22_85
*440 FILLER_0_22_93
*441 FILLER_0_23_110
*442 FILLER_0_23_114
*443 FILLER_0_23_130
*444 FILLER_0_23_138
*445 FILLER_0_23_152
*446 FILLER_0_23_166
*447 FILLER_0_23_168
*448 FILLER_0_23_2
*449 FILLER_0_23_200
*450 FILLER_0_23_204
*451 FILLER_0_23_208
*452 FILLER_0_23_212
*453 FILLER_0_23_276
*454 FILLER_0_23_282
*455 FILLER_0_23_314
*456 FILLER_0_23_318
*457 FILLER_0_23_320
*458 FILLER_0_23_66
*459 FILLER_0_23_72
*460 FILLER_0_24_101
*461 FILLER_0_24_107
*462 FILLER_0_24_111
*463 FILLER_0_24_113
*464 FILLER_0_24_116
*465 FILLER_0_24_131
*466 FILLER_0_24_139
*467 FILLER_0_24_141
*468 FILLER_0_24_173
*469 FILLER_0_24_199
*470 FILLER_0_24_203
*471 FILLER_0_24_236
*472 FILLER_0_24_244
*473 FILLER_0_24_247
*474 FILLER_0_24_28
*475 FILLER_0_24_311
*476 FILLER_0_24_317
*477 FILLER_0_24_32
*478 FILLER_0_24_34
*479 FILLER_0_24_37
*480 FILLER_0_25_132
*481 FILLER_0_25_142
*482 FILLER_0_25_150
*483 FILLER_0_25_202
*484 FILLER_0_25_206
*485 FILLER_0_25_241
*486 FILLER_0_25_273
*487 FILLER_0_25_277
*488 FILLER_0_25_279
*489 FILLER_0_25_28
*490 FILLER_0_25_282
*491 FILLER_0_25_314
*492 FILLER_0_25_322
*493 FILLER_0_25_60
*494 FILLER_0_25_68
*495 FILLER_0_25_72
*496 FILLER_0_25_80
*497 FILLER_0_25_84
*498 FILLER_0_26_101
*499 FILLER_0_26_142
*500 FILLER_0_26_146
*501 FILLER_0_26_154
*502 FILLER_0_26_156
*503 FILLER_0_26_173
*504 FILLER_0_26_177
*505 FILLER_0_26_181
*506 FILLER_0_26_191
*507 FILLER_0_26_223
*508 FILLER_0_26_229
*509 FILLER_0_26_247
*510 FILLER_0_26_28
*511 FILLER_0_26_311
*512 FILLER_0_26_317
*513 FILLER_0_26_32
*514 FILLER_0_26_321
*515 FILLER_0_26_34
*516 FILLER_0_26_37
*517 FILLER_0_27_103
*518 FILLER_0_27_135
*519 FILLER_0_27_137
*520 FILLER_0_27_142
*521 FILLER_0_27_158
*522 FILLER_0_27_162
*523 FILLER_0_27_174
*524 FILLER_0_27_176
*525 FILLER_0_27_194
*526 FILLER_0_27_2
*527 FILLER_0_27_212
*528 FILLER_0_27_216
*529 FILLER_0_27_223
*530 FILLER_0_27_255
*531 FILLER_0_27_271
*532 FILLER_0_27_279
*533 FILLER_0_27_282
*534 FILLER_0_27_346
*535 FILLER_0_27_348
*536 FILLER_0_27_66
*537 FILLER_0_27_72
*538 FILLER_0_27_88
*539 FILLER_0_27_96
*540 FILLER_0_28_101
*541 FILLER_0_28_107
*542 FILLER_0_28_111
*543 FILLER_0_28_127
*544 FILLER_0_28_146
*545 FILLER_0_28_161
*546 FILLER_0_28_169
*547 FILLER_0_28_173
*548 FILLER_0_28_177
*549 FILLER_0_28_179
*550 FILLER_0_28_190
*551 FILLER_0_28_222
*552 FILLER_0_28_238
*553 FILLER_0_28_242
*554 FILLER_0_28_244
*555 FILLER_0_28_247
*556 FILLER_0_28_28
*557 FILLER_0_28_311
*558 FILLER_0_28_317
*559 FILLER_0_28_32
*560 FILLER_0_28_34
*561 FILLER_0_28_37
*562 FILLER_0_28_69
*563 FILLER_0_28_85
*564 FILLER_0_28_89
*565 FILLER_0_29_107
*566 FILLER_0_29_138
*567 FILLER_0_29_165
*568 FILLER_0_29_169
*569 FILLER_0_29_171
*570 FILLER_0_29_174
*571 FILLER_0_29_207
*572 FILLER_0_29_209
*573 FILLER_0_29_220
*574 FILLER_0_29_222
*575 FILLER_0_29_228
*576 FILLER_0_29_260
*577 FILLER_0_29_276
*578 FILLER_0_29_28
*579 FILLER_0_29_282
*580 FILLER_0_29_314
*581 FILLER_0_29_322
*582 FILLER_0_29_60
*583 FILLER_0_29_68
*584 FILLER_0_29_72
*585 FILLER_0_29_76
*586 FILLER_0_2_101
*587 FILLER_0_2_107
*588 FILLER_0_2_139
*589 FILLER_0_2_143
*590 FILLER_0_2_171
*591 FILLER_0_2_177
*592 FILLER_0_2_193
*593 FILLER_0_2_197
*594 FILLER_0_2_2
*595 FILLER_0_2_225
*596 FILLER_0_2_241
*597 FILLER_0_2_247
*598 FILLER_0_2_311
*599 FILLER_0_2_317
*600 FILLER_0_2_34
*601 FILLER_0_2_37
*602 FILLER_0_30_101
*603 FILLER_0_30_107
*604 FILLER_0_30_173
*605 FILLER_0_30_193
*606 FILLER_0_30_201
*607 FILLER_0_30_203
*608 FILLER_0_30_241
*609 FILLER_0_30_247
*610 FILLER_0_30_28
*611 FILLER_0_30_311
*612 FILLER_0_30_317
*613 FILLER_0_30_32
*614 FILLER_0_30_321
*615 FILLER_0_30_34
*616 FILLER_0_30_37
*617 FILLER_0_30_69
*618 FILLER_0_30_85
*619 FILLER_0_30_93
*620 FILLER_0_31_136
*621 FILLER_0_31_148
*622 FILLER_0_31_152
*623 FILLER_0_31_168
*624 FILLER_0_31_2
*625 FILLER_0_31_200
*626 FILLER_0_31_208
*627 FILLER_0_31_212
*628 FILLER_0_31_276
*629 FILLER_0_31_282
*630 FILLER_0_31_346
*631 FILLER_0_31_348
*632 FILLER_0_31_66
*633 FILLER_0_31_72
*634 FILLER_0_32_101
*635 FILLER_0_32_107
*636 FILLER_0_32_171
*637 FILLER_0_32_177
*638 FILLER_0_32_2
*639 FILLER_0_32_241
*640 FILLER_0_32_247
*641 FILLER_0_32_311
*642 FILLER_0_32_317
*643 FILLER_0_32_34
*644 FILLER_0_32_37
*645 FILLER_0_33_136
*646 FILLER_0_33_142
*647 FILLER_0_33_2
*648 FILLER_0_33_206
*649 FILLER_0_33_212
*650 FILLER_0_33_276
*651 FILLER_0_33_282
*652 FILLER_0_33_346
*653 FILLER_0_33_348
*654 FILLER_0_33_66
*655 FILLER_0_33_72
*656 FILLER_0_34_101
*657 FILLER_0_34_107
*658 FILLER_0_34_171
*659 FILLER_0_34_177
*660 FILLER_0_34_2
*661 FILLER_0_34_241
*662 FILLER_0_34_247
*663 FILLER_0_34_311
*664 FILLER_0_34_317
*665 FILLER_0_34_34
*666 FILLER_0_34_37
*667 FILLER_0_35_136
*668 FILLER_0_35_142
*669 FILLER_0_35_2
*670 FILLER_0_35_206
*671 FILLER_0_35_212
*672 FILLER_0_35_276
*673 FILLER_0_35_282
*674 FILLER_0_35_346
*675 FILLER_0_35_348
*676 FILLER_0_35_66
*677 FILLER_0_35_72
*678 FILLER_0_36_101
*679 FILLER_0_36_107
*680 FILLER_0_36_171
*681 FILLER_0_36_177
*682 FILLER_0_36_2
*683 FILLER_0_36_241
*684 FILLER_0_36_247
*685 FILLER_0_36_311
*686 FILLER_0_36_317
*687 FILLER_0_36_34
*688 FILLER_0_36_37
*689 FILLER_0_37_136
*690 FILLER_0_37_142
*691 FILLER_0_37_2
*692 FILLER_0_37_206
*693 FILLER_0_37_212
*694 FILLER_0_37_276
*695 FILLER_0_37_282
*696 FILLER_0_37_346
*697 FILLER_0_37_348
*698 FILLER_0_37_66
*699 FILLER_0_37_72
*700 FILLER_0_38_101
*701 FILLER_0_38_107
*702 FILLER_0_38_171
*703 FILLER_0_38_177
*704 FILLER_0_38_2
*705 FILLER_0_38_241
*706 FILLER_0_38_247
*707 FILLER_0_38_311
*708 FILLER_0_38_317
*709 FILLER_0_38_34
*710 FILLER_0_38_37
*711 FILLER_0_39_136
*712 FILLER_0_39_142
*713 FILLER_0_39_2
*714 FILLER_0_39_206
*715 FILLER_0_39_212
*716 FILLER_0_39_276
*717 FILLER_0_39_282
*718 FILLER_0_39_346
*719 FILLER_0_39_348
*720 FILLER_0_39_66
*721 FILLER_0_39_72
*722 FILLER_0_3_136
*723 FILLER_0_3_142
*724 FILLER_0_3_2
*725 FILLER_0_3_206
*726 FILLER_0_3_212
*727 FILLER_0_3_276
*728 FILLER_0_3_282
*729 FILLER_0_3_346
*730 FILLER_0_3_348
*731 FILLER_0_3_66
*732 FILLER_0_3_72
*733 FILLER_0_40_101
*734 FILLER_0_40_107
*735 FILLER_0_40_171
*736 FILLER_0_40_177
*737 FILLER_0_40_2
*738 FILLER_0_40_241
*739 FILLER_0_40_247
*740 FILLER_0_40_311
*741 FILLER_0_40_317
*742 FILLER_0_40_34
*743 FILLER_0_40_37
*744 FILLER_0_41_136
*745 FILLER_0_41_142
*746 FILLER_0_41_2
*747 FILLER_0_41_206
*748 FILLER_0_41_212
*749 FILLER_0_41_276
*750 FILLER_0_41_282
*751 FILLER_0_41_346
*752 FILLER_0_41_348
*753 FILLER_0_41_66
*754 FILLER_0_41_72
*755 FILLER_0_42_101
*756 FILLER_0_42_107
*757 FILLER_0_42_171
*758 FILLER_0_42_177
*759 FILLER_0_42_2
*760 FILLER_0_42_241
*761 FILLER_0_42_247
*762 FILLER_0_42_311
*763 FILLER_0_42_317
*764 FILLER_0_42_34
*765 FILLER_0_42_37
*766 FILLER_0_43_136
*767 FILLER_0_43_168
*768 FILLER_0_43_2
*769 FILLER_0_43_200
*770 FILLER_0_43_208
*771 FILLER_0_43_212
*772 FILLER_0_43_276
*773 FILLER_0_43_282
*774 FILLER_0_43_346
*775 FILLER_0_43_348
*776 FILLER_0_43_66
*777 FILLER_0_43_72
*778 FILLER_0_44_104
*779 FILLER_0_44_138
*780 FILLER_0_44_172
*781 FILLER_0_44_2
*782 FILLER_0_44_232
*783 FILLER_0_44_236
*784 FILLER_0_44_240
*785 FILLER_0_44_274
*786 FILLER_0_44_308
*787 FILLER_0_44_342
*788 FILLER_0_44_346
*789 FILLER_0_44_348
*790 FILLER_0_44_36
*791 FILLER_0_44_70
*792 FILLER_0_4_101
*793 FILLER_0_4_107
*794 FILLER_0_4_171
*795 FILLER_0_4_177
*796 FILLER_0_4_2
*797 FILLER_0_4_241
*798 FILLER_0_4_247
*799 FILLER_0_4_311
*800 FILLER_0_4_317
*801 FILLER_0_4_34
*802 FILLER_0_4_37
*803 FILLER_0_5_136
*804 FILLER_0_5_142
*805 FILLER_0_5_2
*806 FILLER_0_5_206
*807 FILLER_0_5_212
*808 FILLER_0_5_276
*809 FILLER_0_5_282
*810 FILLER_0_5_346
*811 FILLER_0_5_348
*812 FILLER_0_5_66
*813 FILLER_0_5_72
*814 FILLER_0_6_101
*815 FILLER_0_6_107
*816 FILLER_0_6_171
*817 FILLER_0_6_177
*818 FILLER_0_6_2
*819 FILLER_0_6_241
*820 FILLER_0_6_247
*821 FILLER_0_6_311
*822 FILLER_0_6_317
*823 FILLER_0_6_34
*824 FILLER_0_6_37
*825 FILLER_0_7_136
*826 FILLER_0_7_142
*827 FILLER_0_7_2
*828 FILLER_0_7_206
*829 FILLER_0_7_212
*830 FILLER_0_7_276
*831 FILLER_0_7_282
*832 FILLER_0_7_346
*833 FILLER_0_7_348
*834 FILLER_0_7_66
*835 FILLER_0_7_72
*836 FILLER_0_8_101
*837 FILLER_0_8_107
*838 FILLER_0_8_171
*839 FILLER_0_8_177
*840 FILLER_0_8_2
*841 FILLER_0_8_241
*842 FILLER_0_8_247
*843 FILLER_0_8_311
*844 FILLER_0_8_317
*845 FILLER_0_8_34
*846 FILLER_0_8_37
*847 FILLER_0_9_136
*848 FILLER_0_9_142
*849 FILLER_0_9_2
*850 FILLER_0_9_206
*851 FILLER_0_9_212
*852 FILLER_0_9_276
*853 FILLER_0_9_282
*854 FILLER_0_9_346
*855 FILLER_0_9_348
*856 FILLER_0_9_66
*857 FILLER_0_9_72
*858 PHY_EDGE_ROW_0_Left_45
*859 PHY_EDGE_ROW_0_Right_0
*860 PHY_EDGE_ROW_10_Left_55
*861 PHY_EDGE_ROW_10_Right_10
*862 PHY_EDGE_ROW_11_Left_56
*863 PHY_EDGE_ROW_11_Right_11
*864 PHY_EDGE_ROW_12_Left_57
*865 PHY_EDGE_ROW_12_Right_12
*866 PHY_EDGE_ROW_13_Left_58
*867 PHY_EDGE_ROW_13_Right_13
*868 PHY_EDGE_ROW_14_Left_59
*869 PHY_EDGE_ROW_14_Right_14
*870 PHY_EDGE_ROW_15_Left_60
*871 PHY_EDGE_ROW_15_Right_15
*872 PHY_EDGE_ROW_16_Left_61
*873 PHY_EDGE_ROW_16_Right_16
*874 PHY_EDGE_ROW_17_Left_62
*875 PHY_EDGE_ROW_17_Right_17
*876 PHY_EDGE_ROW_18_Left_63
*877 PHY_EDGE_ROW_18_Right_18
*878 PHY_EDGE_ROW_19_Left_64
*879 PHY_EDGE_ROW_19_Right_19
*880 PHY_EDGE_ROW_1_Left_46
*881 PHY_EDGE_ROW_1_Right_1
*882 PHY_EDGE_ROW_20_Left_65
*883 PHY_EDGE_ROW_20_Right_20
*884 PHY_EDGE_ROW_21_Left_66
*885 PHY_EDGE_ROW_21_Right_21
*886 PHY_EDGE_ROW_22_Left_67
*887 PHY_EDGE_ROW_22_Right_22
*888 PHY_EDGE_ROW_23_Left_68
*889 PHY_EDGE_ROW_23_Right_23
*890 PHY_EDGE_ROW_24_Left_69
*891 PHY_EDGE_ROW_24_Right_24
*892 PHY_EDGE_ROW_25_Left_70
*893 PHY_EDGE_ROW_25_Right_25
*894 PHY_EDGE_ROW_26_Left_71
*895 PHY_EDGE_ROW_26_Right_26
*896 PHY_EDGE_ROW_27_Left_72
*897 PHY_EDGE_ROW_27_Right_27
*898 PHY_EDGE_ROW_28_Left_73
*899 PHY_EDGE_ROW_28_Right_28
*900 PHY_EDGE_ROW_29_Left_74
*901 PHY_EDGE_ROW_29_Right_29
*902 PHY_EDGE_ROW_2_Left_47
*903 PHY_EDGE_ROW_2_Right_2
*904 PHY_EDGE_ROW_30_Left_75
*905 PHY_EDGE_ROW_30_Right_30
*906 PHY_EDGE_ROW_31_Left_76
*907 PHY_EDGE_ROW_31_Right_31
*908 PHY_EDGE_ROW_32_Left_77
*909 PHY_EDGE_ROW_32_Right_32
*910 PHY_EDGE_ROW_33_Left_78
*911 PHY_EDGE_ROW_33_Right_33
*912 PHY_EDGE_ROW_34_Left_79
*913 PHY_EDGE_ROW_34_Right_34
*914 PHY_EDGE_ROW_35_Left_80
*915 PHY_EDGE_ROW_35_Right_35
*916 PHY_EDGE_ROW_36_Left_81
*917 PHY_EDGE_ROW_36_Right_36
*918 PHY_EDGE_ROW_37_Left_82
*919 PHY_EDGE_ROW_37_Right_37
*920 PHY_EDGE_ROW_38_Left_83
*921 PHY_EDGE_ROW_38_Right_38
*922 PHY_EDGE_ROW_39_Left_84
*923 PHY_EDGE_ROW_39_Right_39
*924 PHY_EDGE_ROW_3_Left_48
*925 PHY_EDGE_ROW_3_Right_3
*926 PHY_EDGE_ROW_40_Left_85
*927 PHY_EDGE_ROW_40_Right_40
*928 PHY_EDGE_ROW_41_Left_86
*929 PHY_EDGE_ROW_41_Right_41
*930 PHY_EDGE_ROW_42_Left_87
*931 PHY_EDGE_ROW_42_Right_42
*932 PHY_EDGE_ROW_43_Left_88
*933 PHY_EDGE_ROW_43_Right_43
*934 PHY_EDGE_ROW_44_Left_89
*935 PHY_EDGE_ROW_44_Right_44
*936 PHY_EDGE_ROW_4_Left_49
*937 PHY_EDGE_ROW_4_Right_4
*938 PHY_EDGE_ROW_5_Left_50
*939 PHY_EDGE_ROW_5_Right_5
*940 PHY_EDGE_ROW_6_Left_51
*941 PHY_EDGE_ROW_6_Right_6
*942 PHY_EDGE_ROW_7_Left_52
*943 PHY_EDGE_ROW_7_Right_7
*944 PHY_EDGE_ROW_8_Left_53
*945 PHY_EDGE_ROW_8_Right_8
*946 PHY_EDGE_ROW_9_Left_54
*947 PHY_EDGE_ROW_9_Right_9
*948 TAP_TAPCELL_ROW_0_90
*949 TAP_TAPCELL_ROW_0_91
*950 TAP_TAPCELL_ROW_0_92
*951 TAP_TAPCELL_ROW_0_93
*952 TAP_TAPCELL_ROW_0_94
*953 TAP_TAPCELL_ROW_0_95
*954 TAP_TAPCELL_ROW_0_96
*955 TAP_TAPCELL_ROW_0_97
*956 TAP_TAPCELL_ROW_0_98
*957 TAP_TAPCELL_ROW_0_99
*958 TAP_TAPCELL_ROW_10_140
*959 TAP_TAPCELL_ROW_10_141
*960 TAP_TAPCELL_ROW_10_142
*961 TAP_TAPCELL_ROW_10_143
*962 TAP_TAPCELL_ROW_10_144
*963 TAP_TAPCELL_ROW_11_145
*964 TAP_TAPCELL_ROW_11_146
*965 TAP_TAPCELL_ROW_11_147
*966 TAP_TAPCELL_ROW_11_148
*967 TAP_TAPCELL_ROW_12_149
*968 TAP_TAPCELL_ROW_12_150
*969 TAP_TAPCELL_ROW_12_151
*970 TAP_TAPCELL_ROW_12_152
*971 TAP_TAPCELL_ROW_12_153
*972 TAP_TAPCELL_ROW_13_154
*973 TAP_TAPCELL_ROW_13_155
*974 TAP_TAPCELL_ROW_13_156
*975 TAP_TAPCELL_ROW_13_157
*976 TAP_TAPCELL_ROW_14_158
*977 TAP_TAPCELL_ROW_14_159
*978 TAP_TAPCELL_ROW_14_160
*979 TAP_TAPCELL_ROW_14_161
*980 TAP_TAPCELL_ROW_14_162
*981 TAP_TAPCELL_ROW_15_163
*982 TAP_TAPCELL_ROW_15_164
*983 TAP_TAPCELL_ROW_15_165
*984 TAP_TAPCELL_ROW_15_166
*985 TAP_TAPCELL_ROW_16_167
*986 TAP_TAPCELL_ROW_16_168
*987 TAP_TAPCELL_ROW_16_169
*988 TAP_TAPCELL_ROW_16_170
*989 TAP_TAPCELL_ROW_16_171
*990 TAP_TAPCELL_ROW_17_172
*991 TAP_TAPCELL_ROW_17_173
*992 TAP_TAPCELL_ROW_17_174
*993 TAP_TAPCELL_ROW_17_175
*994 TAP_TAPCELL_ROW_18_176
*995 TAP_TAPCELL_ROW_18_177
*996 TAP_TAPCELL_ROW_18_178
*997 TAP_TAPCELL_ROW_18_179
*998 TAP_TAPCELL_ROW_18_180
*999 TAP_TAPCELL_ROW_19_181
*1000 TAP_TAPCELL_ROW_19_182
*1001 TAP_TAPCELL_ROW_19_183
*1002 TAP_TAPCELL_ROW_19_184
*1003 TAP_TAPCELL_ROW_1_100
*1004 TAP_TAPCELL_ROW_1_101
*1005 TAP_TAPCELL_ROW_1_102
*1006 TAP_TAPCELL_ROW_1_103
*1007 TAP_TAPCELL_ROW_20_185
*1008 TAP_TAPCELL_ROW_20_186
*1009 TAP_TAPCELL_ROW_20_187
*1010 TAP_TAPCELL_ROW_20_188
*1011 TAP_TAPCELL_ROW_20_189
*1012 TAP_TAPCELL_ROW_21_190
*1013 TAP_TAPCELL_ROW_21_191
*1014 TAP_TAPCELL_ROW_21_192
*1015 TAP_TAPCELL_ROW_21_193
*1016 TAP_TAPCELL_ROW_22_194
*1017 TAP_TAPCELL_ROW_22_195
*1018 TAP_TAPCELL_ROW_22_196
*1019 TAP_TAPCELL_ROW_22_197
*1020 TAP_TAPCELL_ROW_22_198
*1021 TAP_TAPCELL_ROW_23_199
*1022 TAP_TAPCELL_ROW_23_200
*1023 TAP_TAPCELL_ROW_23_201
*1024 TAP_TAPCELL_ROW_23_202
*1025 TAP_TAPCELL_ROW_24_203
*1026 TAP_TAPCELL_ROW_24_204
*1027 TAP_TAPCELL_ROW_24_205
*1028 TAP_TAPCELL_ROW_24_206
*1029 TAP_TAPCELL_ROW_24_207
*1030 TAP_TAPCELL_ROW_25_208
*1031 TAP_TAPCELL_ROW_25_209
*1032 TAP_TAPCELL_ROW_25_210
*1033 TAP_TAPCELL_ROW_25_211
*1034 TAP_TAPCELL_ROW_26_212
*1035 TAP_TAPCELL_ROW_26_213
*1036 TAP_TAPCELL_ROW_26_214
*1037 TAP_TAPCELL_ROW_26_215
*1038 TAP_TAPCELL_ROW_26_216
*1039 TAP_TAPCELL_ROW_27_217
*1040 TAP_TAPCELL_ROW_27_218
*1041 TAP_TAPCELL_ROW_27_219
*1042 TAP_TAPCELL_ROW_27_220
*1043 TAP_TAPCELL_ROW_28_221
*1044 TAP_TAPCELL_ROW_28_222
*1045 TAP_TAPCELL_ROW_28_223
*1046 TAP_TAPCELL_ROW_28_224
*1047 TAP_TAPCELL_ROW_28_225
*1048 TAP_TAPCELL_ROW_29_226
*1049 TAP_TAPCELL_ROW_29_227
*1050 TAP_TAPCELL_ROW_29_228
*1051 TAP_TAPCELL_ROW_29_229
*1052 TAP_TAPCELL_ROW_2_104
*1053 TAP_TAPCELL_ROW_2_105
*1054 TAP_TAPCELL_ROW_2_106
*1055 TAP_TAPCELL_ROW_2_107
*1056 TAP_TAPCELL_ROW_2_108
*1057 TAP_TAPCELL_ROW_30_230
*1058 TAP_TAPCELL_ROW_30_231
*1059 TAP_TAPCELL_ROW_30_232
*1060 TAP_TAPCELL_ROW_30_233
*1061 TAP_TAPCELL_ROW_30_234
*1062 TAP_TAPCELL_ROW_31_235
*1063 TAP_TAPCELL_ROW_31_236
*1064 TAP_TAPCELL_ROW_31_237
*1065 TAP_TAPCELL_ROW_31_238
*1066 TAP_TAPCELL_ROW_32_239
*1067 TAP_TAPCELL_ROW_32_240
*1068 TAP_TAPCELL_ROW_32_241
*1069 TAP_TAPCELL_ROW_32_242
*1070 TAP_TAPCELL_ROW_32_243
*1071 TAP_TAPCELL_ROW_33_244
*1072 TAP_TAPCELL_ROW_33_245
*1073 TAP_TAPCELL_ROW_33_246
*1074 TAP_TAPCELL_ROW_33_247
*1075 TAP_TAPCELL_ROW_34_248
*1076 TAP_TAPCELL_ROW_34_249
*1077 TAP_TAPCELL_ROW_34_250
*1078 TAP_TAPCELL_ROW_34_251
*1079 TAP_TAPCELL_ROW_34_252
*1080 TAP_TAPCELL_ROW_35_253
*1081 TAP_TAPCELL_ROW_35_254
*1082 TAP_TAPCELL_ROW_35_255
*1083 TAP_TAPCELL_ROW_35_256
*1084 TAP_TAPCELL_ROW_36_257
*1085 TAP_TAPCELL_ROW_36_258
*1086 TAP_TAPCELL_ROW_36_259
*1087 TAP_TAPCELL_ROW_36_260
*1088 TAP_TAPCELL_ROW_36_261
*1089 TAP_TAPCELL_ROW_37_262
*1090 TAP_TAPCELL_ROW_37_263
*1091 TAP_TAPCELL_ROW_37_264
*1092 TAP_TAPCELL_ROW_37_265
*1093 TAP_TAPCELL_ROW_38_266
*1094 TAP_TAPCELL_ROW_38_267
*1095 TAP_TAPCELL_ROW_38_268
*1096 TAP_TAPCELL_ROW_38_269
*1097 TAP_TAPCELL_ROW_38_270
*1098 TAP_TAPCELL_ROW_39_271
*1099 TAP_TAPCELL_ROW_39_272
*1100 TAP_TAPCELL_ROW_39_273
*1101 TAP_TAPCELL_ROW_39_274
*1102 TAP_TAPCELL_ROW_3_109
*1103 TAP_TAPCELL_ROW_3_110
*1104 TAP_TAPCELL_ROW_3_111
*1105 TAP_TAPCELL_ROW_3_112
*1106 TAP_TAPCELL_ROW_40_275
*1107 TAP_TAPCELL_ROW_40_276
*1108 TAP_TAPCELL_ROW_40_277
*1109 TAP_TAPCELL_ROW_40_278
*1110 TAP_TAPCELL_ROW_40_279
*1111 TAP_TAPCELL_ROW_41_280
*1112 TAP_TAPCELL_ROW_41_281
*1113 TAP_TAPCELL_ROW_41_282
*1114 TAP_TAPCELL_ROW_41_283
*1115 TAP_TAPCELL_ROW_42_284
*1116 TAP_TAPCELL_ROW_42_285
*1117 TAP_TAPCELL_ROW_42_286
*1118 TAP_TAPCELL_ROW_42_287
*1119 TAP_TAPCELL_ROW_42_288
*1120 TAP_TAPCELL_ROW_43_289
*1121 TAP_TAPCELL_ROW_43_290
*1122 TAP_TAPCELL_ROW_43_291
*1123 TAP_TAPCELL_ROW_43_292
*1124 TAP_TAPCELL_ROW_44_293
*1125 TAP_TAPCELL_ROW_44_294
*1126 TAP_TAPCELL_ROW_44_295
*1127 TAP_TAPCELL_ROW_44_296
*1128 TAP_TAPCELL_ROW_44_297
*1129 TAP_TAPCELL_ROW_44_298
*1130 TAP_TAPCELL_ROW_44_299
*1131 TAP_TAPCELL_ROW_44_300
*1132 TAP_TAPCELL_ROW_44_301
*1133 TAP_TAPCELL_ROW_44_302
*1134 TAP_TAPCELL_ROW_4_113
*1135 TAP_TAPCELL_ROW_4_114
*1136 TAP_TAPCELL_ROW_4_115
*1137 TAP_TAPCELL_ROW_4_116
*1138 TAP_TAPCELL_ROW_4_117
*1139 TAP_TAPCELL_ROW_5_118
*1140 TAP_TAPCELL_ROW_5_119
*1141 TAP_TAPCELL_ROW_5_120
*1142 TAP_TAPCELL_ROW_5_121
*1143 TAP_TAPCELL_ROW_6_122
*1144 TAP_TAPCELL_ROW_6_123
*1145 TAP_TAPCELL_ROW_6_124
*1146 TAP_TAPCELL_ROW_6_125
*1147 TAP_TAPCELL_ROW_6_126
*1148 TAP_TAPCELL_ROW_7_127
*1149 TAP_TAPCELL_ROW_7_128
*1150 TAP_TAPCELL_ROW_7_129
*1151 TAP_TAPCELL_ROW_7_130
*1152 TAP_TAPCELL_ROW_8_131
*1153 TAP_TAPCELL_ROW_8_132
*1154 TAP_TAPCELL_ROW_8_133
*1155 TAP_TAPCELL_ROW_8_134
*1156 TAP_TAPCELL_ROW_8_135
*1157 TAP_TAPCELL_ROW_9_136
*1158 TAP_TAPCELL_ROW_9_137
*1159 TAP_TAPCELL_ROW_9_138
*1160 TAP_TAPCELL_ROW_9_139
*1161 _092_
*1162 _093_
*1163 _094_
*1164 _095_
*1165 _096_
*1166 _097_
*1167 _098_
*1168 _099_
*1169 _100_
*1170 _101_
*1171 _102_
*1172 _103_
*1173 _104_
*1174 _105_
*1175 _106_
*1176 _107_
*1177 _108_
*1178 _109_
*1179 _110_
*1180 _111_
*1181 _112_
*1182 _113_
*1183 _114_
*1184 _115_
*1185 _116_
*1186 _117_
*1187 _118_
*1188 _119_
*1189 _120_
*1190 _121_
*1191 _122_
*1192 _123_
*1193 _124_
*1194 _125_
*1195 _126_
*1196 _127_
*1197 _128_
*1198 _129_
*1199 _130_
*1200 _131_
*1201 _132_
*1202 _133_
*1203 _134_
*1204 _135_
*1205 _136_
*1206 _137_
*1207 _138_
*1208 _139_
*1209 _140_
*1210 _141_
*1211 _142_
*1212 _143_
*1213 _144_
*1214 _145_
*1215 _146_
*1216 _147_
*1217 _148_
*1218 _149_
*1219 _150_
*1220 _151_
*1221 _152_
*1222 _153_
*1223 _154_
*1224 _155_
*1225 _156_
*1226 _157_
*1227 _158_
*1228 _159_
*1229 _160_
*1230 _161_
*1231 _162_
*1232 _163_
*1233 _164_
*1234 _165_
*1235 _166_
*1236 _167_
*1237 _168_
*1238 _169_
*1239 _170_
*1240 _171_
*1241 _172_
*1242 _173_
*1243 _174_
*1244 _175_
*1245 _176_
*1246 _177_
*1247 _178_
*1248 _179_
*1249 _180_
*1250 _181_
*1251 _182_
*1252 _183_
*1253 _184_
*1254 _185_
*1255 _186_
*1256 _187_
*1257 _188_
*1258 _189_
*1259 _190_
*1260 _191_
*1261 _192_
*1262 _193_
*1263 _194_
*1264 _195_
*1265 _196_
*1266 _197_
*1267 _198_
*1268 _199_
*1269 _200_
*1270 _201_
*1271 _202_
*1272 _203_
*1273 _204_
*1274 _205_
*1275 _206_
*1276 _207_
*1277 _209_
*1278 _210_
*1279 _211_
*1280 _212_
*1281 _213_
*1282 clkbuf_0_clk
*1283 clkbuf_1_0__f_clk
*1284 clkbuf_1_1__f_clk
*1285 ita55_26
*1286 output1
*1287 output10
*1288 output11
*1289 output12
*1290 output13
*1291 output14
*1292 output15
*1293 output16
*1294 output17
*1295 output18
*1296 output19
*1297 output2
*1298 output20
*1299 output21
*1300 output22
*1301 output23
*1302 output24
*1303 output25
*1304 output3
*1305 output4
*1306 output5
*1307 output6
*1308 output7
*1309 output8
*1310 output9

*PORTS
clk I
segm[0] O
segm[10] O
segm[11] O
segm[12] O
segm[13] O
segm[1] O
segm[2] O
segm[3] O
segm[4] O
segm[5] O
segm[6] O
segm[7] O
segm[8] O
segm[9] O
sel[0] O
sel[10] O
sel[11] O
sel[1] O
sel[2] O
sel[3] O
sel[4] O
sel[5] O
sel[6] O
sel[7] O
sel[8] O
sel[9] O

*D_NET *1 0.013758
*CONN
*P clk I
*I *1282:I I *D gf180mcu_fd_sc_mcu7t5v0__clkbuf_16
*I *179:I I *D gf180mcu_fd_sc_mcu7t5v0__antenna
*CAP
1 clk 0.00448587
2 *1282:I 4.93815e-05
3 *179:I 0
4 *1:15 0.00453525
5 *1282:I *115:35 7.38636e-05
6 *1:15 *168:I 0
7 *1:15 *1214:A1 0.00083929
8 *1:15 *1240:B1 1.20889e-05
9 *1:15 *1245:B 9.03087e-05
10 *1:15 *1256:D 0.00144057
11 *1:15 *1291:I 9.26705e-05
12 *1:15 *1299:I 0.000509981
13 *1:15 *82:18 3.0934e-05
14 *1:15 *89:30 0.00115871
15 *1:15 *107:30 0.000238087
16 *1:15 *108:14 0.000201042
17 *1:15 *123:173 0
18 *1:15 *123:189 0
19 *1:15 *125:10 0
*RES
1 clk *1:15 48.498 
2 *1:15 *179:I 4.5 
3 *1:15 *1282:I 5.032 
*END

*D_NET *2 0.00209956
*CONN
*P segm[0] O
*I *1285:ZN O *D gf180mcu_fd_sc_mcu7t5v0__tiel
*CAP
1 segm[0] 0.000896777
2 *1285:ZN 0.000896777
3 segm[0] segm[13] 8.22324e-05
4 segm[0] sel[4] 0.000206485
5 segm[0] *1298:I 1.72912e-05
*RES
1 *1285:ZN segm[0] 19.7303 
*END

*D_NET *3 0.00266161
*CONN
*P segm[10] O
*I *1286:Z O *D gf180mcu_fd_sc_mcu7t5v0__buf_8
*CAP
1 segm[10] 0.000969233
2 *1286:Z 0.000969233
3 segm[10] sel[9] 0.000397952
4 segm[10] *1286:I 8.55242e-05
5 segm[10] *1303:I 0.000239669
*RES
1 *1286:Z segm[10] 21.518 
*END

*D_NET *4 0.000469555
*CONN
*P segm[11] O
*I *1297:Z O *D gf180mcu_fd_sc_mcu7t5v0__buf_8
*CAP
1 segm[11] 0.000201325
2 *1297:Z 0.000201325
3 segm[11] sel[0] 6.69047e-05
*RES
1 *1297:Z segm[11] 10.71 
*END

*D_NET *5 0.00252347
*CONN
*P segm[12] O
*I *1304:Z O *D gf180mcu_fd_sc_mcu7t5v0__buf_8
*CAP
1 segm[12] 0.00102341
2 *1304:Z 0.00102341
3 segm[12] sel[10] 0.000127271
4 segm[12] *1304:I 0.00034938
*RES
1 *1304:Z segm[12] 21.214 
*END

*D_NET *6 0.00234766
*CONN
*P segm[13] O
*I *1305:Z O *D gf180mcu_fd_sc_mcu7t5v0__buf_8
*CAP
1 segm[13] 0.00107166
2 *1305:Z 0.00107166
3 segm[13] sel[4] 0.000122103
4 segm[13] *1298:I 0
5 segm[0] segm[13] 8.22324e-05
*RES
1 *1305:Z segm[13] 20.91 
*END

*D_NET *7 0.000882104
*CONN
*P segm[1] O
*I *1306:Z O *D gf180mcu_fd_sc_mcu7t5v0__buf_8
*CAP
1 segm[1] 0.000395755
2 *1306:Z 0.000395755
3 segm[1] sel[8] 9.05929e-05
*RES
1 *1306:Z segm[1] 11.698 
*END

*D_NET *8 0.00113778
*CONN
*P segm[2] O
*I *1307:Z O *D gf180mcu_fd_sc_mcu7t5v0__buf_8
*CAP
1 segm[2] 0.000374335
2 *1307:Z 0.000374335
3 segm[2] sel[7] 0.000389107
*RES
1 *1307:Z segm[2] 12.002 
*END

*D_NET *9 0.000763994
*CONN
*P segm[3] O
*I *1308:Z O *D gf180mcu_fd_sc_mcu7t5v0__buf_8
*CAP
1 segm[3] 0.000303249
2 *1308:Z 0.000303249
3 segm[3] segm[5] 9.30307e-05
4 segm[3] sel[3] 6.4464e-05
*RES
1 *1308:Z segm[3] 11.394 
*END

*D_NET *10 0.000613781
*CONN
*P segm[4] O
*I *1309:Z O *D gf180mcu_fd_sc_mcu7t5v0__buf_8
*CAP
1 segm[4] 0.000306891