*SPEF "ieee 1481-1999"
*DESIGN "ita53"
*DATE "11:11:11 Fri 11 11, 1111"
*VENDOR "OpenRCX"
*PROGRAM "Parallel Extraction"
*VERSION "1.0"
*DESIGN_FLOW "NAME_SCOPE LOCAL" "PIN_CAP NONE"
*DIVIDER /
*DELIMITER :
*BUS_DELIMITER []
*T_UNIT 1 NS
*C_UNIT 1 PF
*R_UNIT 1 OHM
*L_UNIT 1 HENRY

*NAME_MAP
*1 clk
*2 segm[0]
*3 segm[10]
*4 segm[11]
*5 segm[12]
*6 segm[13]
*7 segm[1]
*8 segm[2]
*9 segm[3]
*10 segm[4]
*11 segm[5]
*12 segm[6]
*13 segm[7]
*14 segm[8]
*15 segm[9]
*16 sel[0]
*17 sel[10]
*18 sel[11]
*19 sel[1]
*20 sel[2]
*21 sel[3]
*22 sel[4]
*23 sel[5]
*24 sel[6]
*25 sel[7]
*26 sel[8]
*27 sel[9]
*30 _000_
*31 _001_
*32 _002_
*33 _003_
*34 _004_
*35 _005_
*36 _006_
*37 _007_
*38 _008_
*39 _009_
*40 _010_
*41 _011_
*42 _012_
*43 _013_
*44 _014_
*45 _015_
*46 _016_
*47 _017_
*48 _018_
*49 _019_
*50 _020_
*51 _021_
*52 _022_
*53 _023_
*54 _024_
*55 _025_
*56 _026_
*57 _027_
*58 _028_
*59 _029_
*60 _030_
*61 _031_
*62 _032_
*63 _033_
*64 _034_
*65 _035_
*66 _036_
*67 _037_
*68 _038_
*69 _039_
*70 _040_
*71 _041_
*72 _042_
*73 _043_
*74 _044_
*75 _045_
*76 _046_
*77 _047_
*78 _048_
*79 _049_
*80 _050_
*81 _051_
*82 _052_
*83 _053_
*84 _054_
*85 _055_
*86 _056_
*87 _057_
*88 _058_
*89 _059_
*90 _060_
*91 _061_
*92 _062_
*93 _063_
*94 _064_
*95 _065_
*96 _066_
*97 _067_
*98 _068_
*99 _069_
*100 _070_
*101 _071_
*102 _072_
*103 _073_
*104 _074_
*105 _075_
*106 _076_
*107 _077_
*108 _078_
*109 _079_
*110 _080_
*111 _081_
*112 _082_
*113 _083_
*114 _084_
*115 _085_
*116 _086_
*117 _087_
*118 _088_
*119 _089_
*120 _090_
*121 _091_
*122 _092_
*123 _093_
*124 _094_
*125 _095_
*126 _096_
*127 _097_
*128 _098_
*129 _099_
*130 _100_
*131 _101_
*132 _102_
*133 _103_
*134 _104_
*135 _105_
*136 clknet_0_clk
*137 clknet_1_0__leaf_clk
*138 clknet_1_1__leaf_clk
*139 dut53\.count\[0\]
*140 dut53\.count\[1\]
*141 dut53\.count\[2\]
*142 dut53\.count\[3\]
*143 net1
*144 net10
*145 net11
*146 net12
*147 net13
*148 net14
*149 net15
*150 net16
*151 net17
*152 net18
*153 net19
*154 net2
*155 net20
*156 net21
*157 net22
*158 net23
*159 net24
*160 net25
*161 net26
*162 net3
*163 net4
*164 net5
*165 net6
*166 net7
*167 net8
*168 net9
*169 ANTENNA__109__I
*170 ANTENNA__159__A2
*171 ANTENNA__194__A2
*172 ANTENNA__206__A2
*173 ANTENNA__212__CLK
*174 ANTENNA__213__CLK
*175 ANTENNA__214__CLK
*176 ANTENNA__215__CLK
*177 ANTENNA__216__CLK
*178 ANTENNA__217__CLK
*179 ANTENNA__218__CLK
*180 ANTENNA__219__CLK
*181 ANTENNA__220__CLK
*182 ANTENNA__221__CLK
*183 ANTENNA__222__CLK
*184 ANTENNA__223__CLK
*185 ANTENNA__224__CLK
*186 ANTENNA__225__CLK
*187 ANTENNA__226__CLK
*188 ANTENNA__227__CLK
*189 ANTENNA__228__CLK
*190 ANTENNA__229__CLK
*191 ANTENNA__230__CLK
*192 ANTENNA__231__CLK
*193 ANTENNA__232__CLK
*194 ANTENNA__233__CLK
*195 ANTENNA__234__CLK
*196 ANTENNA__235__CLK
*197 ANTENNA__236__CLK
*198 ANTENNA__237__CLK
*199 ANTENNA_clkbuf_0_clk_I
*200 FILLER_0_0_104
*201 FILLER_0_0_138
*202 FILLER_0_0_142
*203 FILLER_0_0_172
*204 FILLER_0_0_176
*205 FILLER_0_0_2
*206 FILLER_0_0_206
*207 FILLER_0_0_210
*208 FILLER_0_0_240
*209 FILLER_0_0_274
*210 FILLER_0_0_308
*211 FILLER_0_0_342
*212 FILLER_0_0_346
*213 FILLER_0_0_348
*214 FILLER_0_0_36
*215 FILLER_0_0_70
*216 FILLER_0_10_101
*217 FILLER_0_10_107
*218 FILLER_0_10_171
*219 FILLER_0_10_177
*220 FILLER_0_10_2
*221 FILLER_0_10_241
*222 FILLER_0_10_247
*223 FILLER_0_10_311
*224 FILLER_0_10_317
*225 FILLER_0_10_34
*226 FILLER_0_10_37
*227 FILLER_0_11_136
*228 FILLER_0_11_142
*229 FILLER_0_11_189
*230 FILLER_0_11_2
*231 FILLER_0_11_205
*232 FILLER_0_11_209
*233 FILLER_0_11_212
*234 FILLER_0_11_276
*235 FILLER_0_11_282
*236 FILLER_0_11_346
*237 FILLER_0_11_348
*238 FILLER_0_11_66
*239 FILLER_0_11_72
*240 FILLER_0_12_101
*241 FILLER_0_12_107
*242 FILLER_0_12_115
*243 FILLER_0_12_119
*244 FILLER_0_12_149
*245 FILLER_0_12_153
*246 FILLER_0_12_169
*247 FILLER_0_12_173
*248 FILLER_0_12_177
*249 FILLER_0_12_2
*250 FILLER_0_12_241
*251 FILLER_0_12_247
*252 FILLER_0_12_311
*253 FILLER_0_12_317
*254 FILLER_0_12_34
*255 FILLER_0_12_37
*256 FILLER_0_13_136
*257 FILLER_0_13_142
*258 FILLER_0_13_158
*259 FILLER_0_13_190
*260 FILLER_0_13_2
*261 FILLER_0_13_206
*262 FILLER_0_13_224
*263 FILLER_0_13_256
*264 FILLER_0_13_272
*265 FILLER_0_13_282
*266 FILLER_0_13_346
*267 FILLER_0_13_348
*268 FILLER_0_13_66
*269 FILLER_0_13_72
*270 FILLER_0_14_101
*271 FILLER_0_14_107
*272 FILLER_0_14_115
*273 FILLER_0_14_119
*274 FILLER_0_14_150
*275 FILLER_0_14_154
*276 FILLER_0_14_162
*277 FILLER_0_14_174
*278 FILLER_0_14_177
*279 FILLER_0_14_184
*280 FILLER_0_14_192
*281 FILLER_0_14_196
*282 FILLER_0_14_198
*283 FILLER_0_14_2
*284 FILLER_0_14_228
*285 FILLER_0_14_232
*286 FILLER_0_14_240
*287 FILLER_0_14_244
*288 FILLER_0_14_247
*289 FILLER_0_14_311
*290 FILLER_0_14_317
*291 FILLER_0_14_34
*292 FILLER_0_14_37
*293 FILLER_0_15_104
*294 FILLER_0_15_120
*295 FILLER_0_15_128
*296 FILLER_0_15_132
*297 FILLER_0_15_134
*298 FILLER_0_15_142
*299 FILLER_0_15_160
*300 FILLER_0_15_176
*301 FILLER_0_15_180
*302 FILLER_0_15_187
*303 FILLER_0_15_2
*304 FILLER_0_15_203
*305 FILLER_0_15_207
*306 FILLER_0_15_209
*307 FILLER_0_15_241
*308 FILLER_0_15_245
*309 FILLER_0_15_277
*310 FILLER_0_15_279
*311 FILLER_0_15_282
*312 FILLER_0_15_346
*313 FILLER_0_15_348
*314 FILLER_0_15_66
*315 FILLER_0_15_72
*316 FILLER_0_16_101
*317 FILLER_0_16_107
*318 FILLER_0_16_139
*319 FILLER_0_16_143
*320 FILLER_0_16_150
*321 FILLER_0_16_158
*322 FILLER_0_16_160
*323 FILLER_0_16_172
*324 FILLER_0_16_174
*325 FILLER_0_16_177
*326 FILLER_0_16_2
*327 FILLER_0_16_209
*328 FILLER_0_16_213
*329 FILLER_0_16_223
*330 FILLER_0_16_231
*331 FILLER_0_16_235
*332 FILLER_0_16_242
*333 FILLER_0_16_244
*334 FILLER_0_16_247
*335 FILLER_0_16_311
*336 FILLER_0_16_317
*337 FILLER_0_16_321
*338 FILLER_0_16_34
*339 FILLER_0_16_37
*340 FILLER_0_17_116
*341 FILLER_0_17_120
*342 FILLER_0_17_136
*343 FILLER_0_17_142
*344 FILLER_0_17_146
*345 FILLER_0_17_148
*346 FILLER_0_17_159
*347 FILLER_0_17_161
*348 FILLER_0_17_168
*349 FILLER_0_17_176
*350 FILLER_0_17_190
*351 FILLER_0_17_2
*352 FILLER_0_17_206
*353 FILLER_0_17_212
*354 FILLER_0_17_228
*355 FILLER_0_17_261
*356 FILLER_0_17_265
*357 FILLER_0_17_273
*358 FILLER_0_17_277
*359 FILLER_0_17_279
*360 FILLER_0_17_282
*361 FILLER_0_17_346
*362 FILLER_0_17_348
*363 FILLER_0_17_66
*364 FILLER_0_17_72
*365 FILLER_0_17_80
*366 FILLER_0_17_84
*367 FILLER_0_17_86
*368 FILLER_0_18_101
*369 FILLER_0_18_107
*370 FILLER_0_18_142
*371 FILLER_0_18_146
*372 FILLER_0_18_170
*373 FILLER_0_18_174
*374 FILLER_0_18_227
*375 FILLER_0_18_231
*376 FILLER_0_18_234
*377 FILLER_0_18_242
*378 FILLER_0_18_244
*379 FILLER_0_18_252
*380 FILLER_0_18_28
*381 FILLER_0_18_284
*382 FILLER_0_18_300
*383 FILLER_0_18_308
*384 FILLER_0_18_312
*385 FILLER_0_18_314
*386 FILLER_0_18_317
*387 FILLER_0_18_32
*388 FILLER_0_18_321
*389 FILLER_0_18_34
*390 FILLER_0_18_37
*391 FILLER_0_19_104
*392 FILLER_0_19_108
*393 FILLER_0_19_117
*394 FILLER_0_19_133
*395 FILLER_0_19_142
*396 FILLER_0_19_166
*397 FILLER_0_19_170
*398 FILLER_0_19_192
*399 FILLER_0_19_2
*400 FILLER_0_19_206
*401 FILLER_0_19_241
*402 FILLER_0_19_245
*403 FILLER_0_19_277
*404 FILLER_0_19_279
*405 FILLER_0_19_282
*406 FILLER_0_19_346
*407 FILLER_0_19_348
*408 FILLER_0_19_66
*409 FILLER_0_19_72
*410 FILLER_0_1_136
*411 FILLER_0_1_142
*412 FILLER_0_1_144
*413 FILLER_0_1_171
*414 FILLER_0_1_179
*415 FILLER_0_1_2
*416 FILLER_0_1_207
*417 FILLER_0_1_209
*418 FILLER_0_1_212
*419 FILLER_0_1_276
*420 FILLER_0_1_282
*421 FILLER_0_1_346
*422 FILLER_0_1_348
*423 FILLER_0_1_66
*424 FILLER_0_1_72
*425 FILLER_0_20_101
*426 FILLER_0_20_136
*427 FILLER_0_20_160
*428 FILLER_0_20_193
*429 FILLER_0_20_2
*430 FILLER_0_20_262
*431 FILLER_0_20_294
*432 FILLER_0_20_310
*433 FILLER_0_20_314
*434 FILLER_0_20_317
*435 FILLER_0_20_34
*436 FILLER_0_20_37
*437 FILLER_0_21_100
*438 FILLER_0_21_103
*439 FILLER_0_21_112
*440 FILLER_0_21_118
*441 FILLER_0_21_120
*442 FILLER_0_21_126
*443 FILLER_0_21_192
*444 FILLER_0_21_2
*445 FILLER_0_21_200
*446 FILLER_0_21_262
*447 FILLER_0_21_278
*448 FILLER_0_21_282
*449 FILLER_0_21_314
*450 FILLER_0_21_322
*451 FILLER_0_21_66
*452 FILLER_0_21_72
*453 FILLER_0_21_88
*454 FILLER_0_21_96
*455 FILLER_0_22_112
*456 FILLER_0_22_118
*457 FILLER_0_22_126
*458 FILLER_0_22_134
*459 FILLER_0_22_136
*460 FILLER_0_22_227
*461 FILLER_0_22_235
*462 FILLER_0_22_237
*463 FILLER_0_22_276
*464 FILLER_0_22_28
*465 FILLER_0_22_308
*466 FILLER_0_22_312
*467 FILLER_0_22_314
*468 FILLER_0_22_317
*469 FILLER_0_22_32
*470 FILLER_0_22_321
*471 FILLER_0_22_34
*472 FILLER_0_22_37
*473 FILLER_0_22_69
*474 FILLER_0_22_73
*475 FILLER_0_22_75
*476 FILLER_0_23_124
*477 FILLER_0_23_130
*478 FILLER_0_23_134
*479 FILLER_0_23_138
*480 FILLER_0_23_142
*481 FILLER_0_23_166
*482 FILLER_0_23_170
*483 FILLER_0_23_172
*484 FILLER_0_23_181
*485 FILLER_0_23_198
*486 FILLER_0_23_2
*487 FILLER_0_23_212
*488 FILLER_0_23_220
*489 FILLER_0_23_224
*490 FILLER_0_23_226
*491 FILLER_0_23_232
*492 FILLER_0_23_236
*493 FILLER_0_23_266
*494 FILLER_0_23_270
*495 FILLER_0_23_278
*496 FILLER_0_23_282
*497 FILLER_0_23_346
*498 FILLER_0_23_348
*499 FILLER_0_23_66
*500 FILLER_0_23_72
*501 FILLER_0_23_80
*502 FILLER_0_23_84
*503 FILLER_0_23_86
*504 FILLER_0_24_101
*505 FILLER_0_24_111
*506 FILLER_0_24_122
*507 FILLER_0_24_124
*508 FILLER_0_24_133
*509 FILLER_0_24_152
*510 FILLER_0_24_154
*511 FILLER_0_24_168
*512 FILLER_0_24_172
*513 FILLER_0_24_174
*514 FILLER_0_24_177
*515 FILLER_0_24_203
*516 FILLER_0_24_239
*517 FILLER_0_24_243
*518 FILLER_0_24_247
*519 FILLER_0_24_249
*520 FILLER_0_24_256
*521 FILLER_0_24_28
*522 FILLER_0_24_288
*523 FILLER_0_24_304
*524 FILLER_0_24_312
*525 FILLER_0_24_314
*526 FILLER_0_24_317
*527 FILLER_0_24_32
*528 FILLER_0_24_321
*529 FILLER_0_24_34
*530 FILLER_0_24_37
*531 FILLER_0_25_132
*532 FILLER_0_25_136
*533 FILLER_0_25_142
*534 FILLER_0_25_146
*535 FILLER_0_25_148
*536 FILLER_0_25_154
*537 FILLER_0_25_164
*538 FILLER_0_25_196
*539 FILLER_0_25_204
*540 FILLER_0_25_208
*541 FILLER_0_25_270
*542 FILLER_0_25_274
*543 FILLER_0_25_278
*544 FILLER_0_25_28
*545 FILLER_0_25_282
*546 FILLER_0_25_314
*547 FILLER_0_25_322
*548 FILLER_0_25_60
*549 FILLER_0_25_68
*550 FILLER_0_25_72
*551 FILLER_0_25_88
*552 FILLER_0_25_92
*553 FILLER_0_26_101
*554 FILLER_0_26_107
*555 FILLER_0_26_115
*556 FILLER_0_26_119
*557 FILLER_0_26_126
*558 FILLER_0_26_142
*559 FILLER_0_26_156
*560 FILLER_0_26_172
*561 FILLER_0_26_174
*562 FILLER_0_26_187
*563 FILLER_0_26_203
*564 FILLER_0_26_211
*565 FILLER_0_26_226
*566 FILLER_0_26_242
*567 FILLER_0_26_244
*568 FILLER_0_26_247
*569 FILLER_0_26_28
*570 FILLER_0_26_311
*571 FILLER_0_26_317
*572 FILLER_0_26_32
*573 FILLER_0_26_321
*574 FILLER_0_26_34
*575 FILLER_0_26_37
*576 FILLER_0_27_136
*577 FILLER_0_27_142
*578 FILLER_0_27_158
*579 FILLER_0_27_188
*580 FILLER_0_27_192
*581 FILLER_0_27_2
*582 FILLER_0_27_208
*583 FILLER_0_27_212
*584 FILLER_0_27_276
*585 FILLER_0_27_282
*586 FILLER_0_27_346
*587 FILLER_0_27_348
*588 FILLER_0_27_66
*589 FILLER_0_27_72
*590 FILLER_0_28_101
*591 FILLER_0_28_107
*592 FILLER_0_28_123
*593 FILLER_0_28_131
*594 FILLER_0_28_154
*595 FILLER_0_28_162
*596 FILLER_0_28_164
*597 FILLER_0_28_173
*598 FILLER_0_28_198
*599 FILLER_0_28_2
*600 FILLER_0_28_206
*601 FILLER_0_28_219
*602 FILLER_0_28_235
*603 FILLER_0_28_243
*604 FILLER_0_28_247
*605 FILLER_0_28_311
*606 FILLER_0_28_317
*607 FILLER_0_28_34
*608 FILLER_0_28_37
*609 FILLER_0_29_104
*610 FILLER_0_29_108
*611 FILLER_0_29_110
*612 FILLER_0_29_151
*613 FILLER_0_29_163
*614 FILLER_0_29_176
*615 FILLER_0_29_180
*616 FILLER_0_29_182
*617 FILLER_0_29_189
*618 FILLER_0_29_193
*619 FILLER_0_29_199
*620 FILLER_0_29_2
*621 FILLER_0_29_241
*622 FILLER_0_29_245
*623 FILLER_0_29_277
*624 FILLER_0_29_279
*625 FILLER_0_29_282
*626 FILLER_0_29_314
*627 FILLER_0_29_322
*628 FILLER_0_29_66
*629 FILLER_0_29_72
*630 FILLER_0_2_101
*631 FILLER_0_2_107
*632 FILLER_0_2_171
*633 FILLER_0_2_177
*634 FILLER_0_2_2
*635 FILLER_0_2_241
*636 FILLER_0_2_247
*637 FILLER_0_2_311
*638 FILLER_0_2_317
*639 FILLER_0_2_34
*640 FILLER_0_2_37
*641 FILLER_0_30_101
*642 FILLER_0_30_107
*643 FILLER_0_30_115
*644 FILLER_0_30_153
*645 FILLER_0_30_163
*646 FILLER_0_30_171
*647 FILLER_0_30_177
*648 FILLER_0_30_2
*649 FILLER_0_30_237
*650 FILLER_0_30_241
*651 FILLER_0_30_247
*652 FILLER_0_30_311
*653 FILLER_0_30_317
*654 FILLER_0_30_321
*655 FILLER_0_30_34
*656 FILLER_0_30_37
*657 FILLER_0_31_136
*658 FILLER_0_31_148
*659 FILLER_0_31_179
*660 FILLER_0_31_183
*661 FILLER_0_31_199
*662 FILLER_0_31_2
*663 FILLER_0_31_207
*664 FILLER_0_31_212
*665 FILLER_0_31_276
*666 FILLER_0_31_282
*667 FILLER_0_31_346
*668 FILLER_0_31_348
*669 FILLER_0_31_66
*670 FILLER_0_31_72
*671 FILLER_0_32_101
*672 FILLER_0_32_107
*673 FILLER_0_32_171
*674 FILLER_0_32_177
*675 FILLER_0_32_2
*676 FILLER_0_32_241
*677 FILLER_0_32_247
*678 FILLER_0_32_311
*679 FILLER_0_32_317
*680 FILLER_0_32_34
*681 FILLER_0_32_37
*682 FILLER_0_33_136
*683 FILLER_0_33_142
*684 FILLER_0_33_2
*685 FILLER_0_33_206
*686 FILLER_0_33_212
*687 FILLER_0_33_276
*688 FILLER_0_33_282
*689 FILLER_0_33_346
*690 FILLER_0_33_348
*691 FILLER_0_33_66
*692 FILLER_0_33_72
*693 FILLER_0_34_101
*694 FILLER_0_34_107
*695 FILLER_0_34_171
*696 FILLER_0_34_177
*697 FILLER_0_34_2
*698 FILLER_0_34_241
*699 FILLER_0_34_247
*700 FILLER_0_34_311
*701 FILLER_0_34_317
*702 FILLER_0_34_34
*703 FILLER_0_34_37
*704 FILLER_0_35_136
*705 FILLER_0_35_142
*706 FILLER_0_35_2
*707 FILLER_0_35_206
*708 FILLER_0_35_212
*709 FILLER_0_35_276
*710 FILLER_0_35_282
*711 FILLER_0_35_346
*712 FILLER_0_35_348
*713 FILLER_0_35_66
*714 FILLER_0_35_72
*715 FILLER_0_36_101
*716 FILLER_0_36_107
*717 FILLER_0_36_171
*718 FILLER_0_36_177
*719 FILLER_0_36_2
*720 FILLER_0_36_241
*721 FILLER_0_36_247
*722 FILLER_0_36_311
*723 FILLER_0_36_317
*724 FILLER_0_36_34
*725 FILLER_0_36_37
*726 FILLER_0_37_136
*727 FILLER_0_37_142
*728 FILLER_0_37_2
*729 FILLER_0_37_206
*730 FILLER_0_37_212
*731 FILLER_0_37_276
*732 FILLER_0_37_282
*733 FILLER_0_37_346
*734 FILLER_0_37_348
*735 FILLER_0_37_66
*736 FILLER_0_37_72
*737 FILLER_0_38_101
*738 FILLER_0_38_107
*739 FILLER_0_38_171
*740 FILLER_0_38_177
*741 FILLER_0_38_2
*742 FILLER_0_38_241
*743 FILLER_0_38_247
*744 FILLER_0_38_311
*745 FILLER_0_38_317
*746 FILLER_0_38_34
*747 FILLER_0_38_37
*748 FILLER_0_39_136
*749 FILLER_0_39_142
*750 FILLER_0_39_2
*751 FILLER_0_39_206
*752 FILLER_0_39_212
*753 FILLER_0_39_276
*754 FILLER_0_39_282
*755 FILLER_0_39_346
*756 FILLER_0_39_348
*757 FILLER_0_39_66
*758 FILLER_0_39_72
*759 FILLER_0_3_136
*760 FILLER_0_3_142
*761 FILLER_0_3_2
*762 FILLER_0_3_206
*763 FILLER_0_3_212
*764 FILLER_0_3_276
*765 FILLER_0_3_282
*766 FILLER_0_3_346
*767 FILLER_0_3_348
*768 FILLER_0_3_66
*769 FILLER_0_3_72
*770 FILLER_0_40_101
*771 FILLER_0_40_107
*772 FILLER_0_40_171
*773 FILLER_0_40_177
*774 FILLER_0_40_2
*775 FILLER_0_40_241
*776 FILLER_0_40_247
*777 FILLER_0_40_311
*778 FILLER_0_40_317
*779 FILLER_0_40_34
*780 FILLER_0_40_37
*781 FILLER_0_41_136
*782 FILLER_0_41_142
*783 FILLER_0_41_2
*784 FILLER_0_41_206
*785 FILLER_0_41_212
*786 FILLER_0_41_276
*787 FILLER_0_41_282
*788 FILLER_0_41_346
*789 FILLER_0_41_348
*790 FILLER_0_41_66
*791 FILLER_0_41_72
*792 FILLER_0_42_101
*793 FILLER_0_42_107
*794 FILLER_0_42_165
*795 FILLER_0_42_173
*796 FILLER_0_42_177
*797 FILLER_0_42_2
*798 FILLER_0_42_241
*799 FILLER_0_42_247
*800 FILLER_0_42_311
*801 FILLER_0_42_317
*802 FILLER_0_42_34
*803 FILLER_0_42_37
*804 FILLER_0_43_136
*805 FILLER_0_43_142
*806 FILLER_0_43_144
*807 FILLER_0_43_171
*808 FILLER_0_43_2
*809 FILLER_0_43_201
*810 FILLER_0_43_209
*811 FILLER_0_43_212
*812 FILLER_0_43_276
*813 FILLER_0_43_282
*814 FILLER_0_43_346
*815 FILLER_0_43_348
*816 FILLER_0_43_66
*817 FILLER_0_43_72
*818 FILLER_0_44_104
*819 FILLER_0_44_108
*820 FILLER_0_44_138
*821 FILLER_0_44_142
*822 FILLER_0_44_172
*823 FILLER_0_44_176
*824 FILLER_0_44_2
*825 FILLER_0_44_232
*826 FILLER_0_44_236
*827 FILLER_0_44_240
*828 FILLER_0_44_274
*829 FILLER_0_44_308
*830 FILLER_0_44_342
*831 FILLER_0_44_346
*832 FILLER_0_44_348
*833 FILLER_0_44_36
*834 FILLER_0_44_70
*835 FILLER_0_4_101
*836 FILLER_0_4_107
*837 FILLER_0_4_171
*838 FILLER_0_4_177
*839 FILLER_0_4_2
*840 FILLER_0_4_241
*841 FILLER_0_4_247
*842 FILLER_0_4_311
*843 FILLER_0_4_317
*844 FILLER_0_4_34
*845 FILLER_0_4_37
*846 FILLER_0_5_136
*847 FILLER_0_5_142
*848 FILLER_0_5_2
*849 FILLER_0_5_206
*850 FILLER_0_5_212
*851 FILLER_0_5_276
*852 FILLER_0_5_282
*853 FILLER_0_5_346
*854 FILLER_0_5_348
*855 FILLER_0_5_66
*856 FILLER_0_5_72
*857 FILLER_0_6_101
*858 FILLER_0_6_107
*859 FILLER_0_6_171
*860 FILLER_0_6_177
*861 FILLER_0_6_2
*862 FILLER_0_6_241
*863 FILLER_0_6_247
*864 FILLER_0_6_311
*865 FILLER_0_6_317
*866 FILLER_0_6_34
*867 FILLER_0_6_37
*868 FILLER_0_7_136
*869 FILLER_0_7_142
*870 FILLER_0_7_2
*871 FILLER_0_7_206
*872 FILLER_0_7_212
*873 FILLER_0_7_276
*874 FILLER_0_7_282
*875 FILLER_0_7_346
*876 FILLER_0_7_348
*877 FILLER_0_7_66
*878 FILLER_0_7_72
*879 FILLER_0_8_101
*880 FILLER_0_8_107
*881 FILLER_0_8_171
*882 FILLER_0_8_177
*883 FILLER_0_8_2
*884 FILLER_0_8_241
*885 FILLER_0_8_247
*886 FILLER_0_8_311
*887 FILLER_0_8_317
*888 FILLER_0_8_34
*889 FILLER_0_8_37
*890 FILLER_0_9_136
*891 FILLER_0_9_142
*892 FILLER_0_9_2
*893 FILLER_0_9_206
*894 FILLER_0_9_212
*895 FILLER_0_9_276
*896 FILLER_0_9_282
*897 FILLER_0_9_346
*898 FILLER_0_9_348
*899 FILLER_0_9_66
*900 FILLER_0_9_72
*901 PHY_EDGE_ROW_0_Left_45
*902 PHY_EDGE_ROW_0_Right_0
*903 PHY_EDGE_ROW_10_Left_55
*904 PHY_EDGE_ROW_10_Right_10
*905 PHY_EDGE_ROW_11_Left_56
*906 PHY_EDGE_ROW_11_Right_11
*907 PHY_EDGE_ROW_12_Left_57
*908 PHY_EDGE_ROW_12_Right_12
*909 PHY_EDGE_ROW_13_Left_58
*910 PHY_EDGE_ROW_13_Right_13
*911 PHY_EDGE_ROW_14_Left_59
*912 PHY_EDGE_ROW_14_Right_14
*913 PHY_EDGE_ROW_15_Left_60
*914 PHY_EDGE_ROW_15_Right_15
*915 PHY_EDGE_ROW_16_Left_61
*916 PHY_EDGE_ROW_16_Right_16
*917 PHY_EDGE_ROW_17_Left_62
*918 PHY_EDGE_ROW_17_Right_17
*919 PHY_EDGE_ROW_18_Left_63
*920 PHY_EDGE_ROW_18_Right_18
*921 PHY_EDGE_ROW_19_Left_64
*922 PHY_EDGE_ROW_19_Right_19
*923 PHY_EDGE_ROW_1_Left_46
*924 PHY_EDGE_ROW_1_Right_1
*925 PHY_EDGE_ROW_20_Left_65
*926 PHY_EDGE_ROW_20_Right_20
*927 PHY_EDGE_ROW_21_Left_66
*928 PHY_EDGE_ROW_21_Right_21
*929 PHY_EDGE_ROW_22_Left_67
*930 PHY_EDGE_ROW_22_Right_22
*931 PHY_EDGE_ROW_23_Left_68
*932 PHY_EDGE_ROW_23_Right_23
*933 PHY_EDGE_ROW_24_Left_69
*934 PHY_EDGE_ROW_24_Right_24
*935 PHY_EDGE_ROW_25_Left_70
*936 PHY_EDGE_ROW_25_Right_25
*937 PHY_EDGE_ROW_26_Left_71
*938 PHY_EDGE_ROW_26_Right_26
*939 PHY_EDGE_ROW_27_Left_72
*940 PHY_EDGE_ROW_27_Right_27
*941 PHY_EDGE_ROW_28_Left_73
*942 PHY_EDGE_ROW_28_Right_28
*943 PHY_EDGE_ROW_29_Left_74
*944 PHY_EDGE_ROW_29_Right_29
*945 PHY_EDGE_ROW_2_Left_47
*946 PHY_EDGE_ROW_2_Right_2
*947 PHY_EDGE_ROW_30_Left_75
*948 PHY_EDGE_ROW_30_Right_30
*949 PHY_EDGE_ROW_31_Left_76
*950 PHY_EDGE_ROW_31_Right_31
*951 PHY_EDGE_ROW_32_Left_77
*952 PHY_EDGE_ROW_32_Right_32
*953 PHY_EDGE_ROW_33_Left_78
*954 PHY_EDGE_ROW_33_Right_33
*955 PHY_EDGE_ROW_34_Left_79
*956 PHY_EDGE_ROW_34_Right_34
*957 PHY_EDGE_ROW_35_Left_80
*958 PHY_EDGE_ROW_35_Right_35
*959 PHY_EDGE_ROW_36_Left_81
*960 PHY_EDGE_ROW_36_Right_36
*961 PHY_EDGE_ROW_37_Left_82
*962 PHY_EDGE_ROW_37_Right_37
*963 PHY_EDGE_ROW_38_Left_83
*964 PHY_EDGE_ROW_38_Right_38
*965 PHY_EDGE_ROW_39_Left_84
*966 PHY_EDGE_ROW_39_Right_39
*967 PHY_EDGE_ROW_3_Left_48
*968 PHY_EDGE_ROW_3_Right_3
*969 PHY_EDGE_ROW_40_Left_85
*970 PHY_EDGE_ROW_40_Right_40
*971 PHY_EDGE_ROW_41_Left_86
*972 PHY_EDGE_ROW_41_Right_41
*973 PHY_EDGE_ROW_42_Left_87
*974 PHY_EDGE_ROW_42_Right_42
*975 PHY_EDGE_ROW_43_Left_88
*976 PHY_EDGE_ROW_43_Right_43
*977 PHY_EDGE_ROW_44_Left_89
*978 PHY_EDGE_ROW_44_Right_44
*979 PHY_EDGE_ROW_4_Left_49
*980 PHY_EDGE_ROW_4_Right_4
*981 PHY_EDGE_ROW_5_Left_50
*982 PHY_EDGE_ROW_5_Right_5
*983 PHY_EDGE_ROW_6_Left_51
*984 PHY_EDGE_ROW_6_Right_6
*985 PHY_EDGE_ROW_7_Left_52
*986 PHY_EDGE_ROW_7_Right_7
*987 PHY_EDGE_ROW_8_Left_53
*988 PHY_EDGE_ROW_8_Right_8
*989 PHY_EDGE_ROW_9_Left_54
*990 PHY_EDGE_ROW_9_Right_9
*991 TAP_TAPCELL_ROW_0_90
*992 TAP_TAPCELL_ROW_0_91
*993 TAP_TAPCELL_ROW_0_92
*994 TAP_TAPCELL_ROW_0_93
*995 TAP_TAPCELL_ROW_0_94
*996 TAP_TAPCELL_ROW_0_95
*997 TAP_TAPCELL_ROW_0_96
*998 TAP_TAPCELL_ROW_0_97
*999 TAP_TAPCELL_ROW_0_98
*1000 TAP_TAPCELL_ROW_0_99
*1001 TAP_TAPCELL_ROW_10_140
*1002 TAP_TAPCELL_ROW_10_141
*1003 TAP_TAPCELL_ROW_10_142
*1004 TAP_TAPCELL_ROW_10_143
*1005 TAP_TAPCELL_ROW_10_144
*1006 TAP_TAPCELL_ROW_11_145
*1007 TAP_TAPCELL_ROW_11_146
*1008 TAP_TAPCELL_ROW_11_147
*1009 TAP_TAPCELL_ROW_11_148
*1010 TAP_TAPCELL_ROW_12_149
*1011 TAP_TAPCELL_ROW_12_150
*1012 TAP_TAPCELL_ROW_12_151
*1013 TAP_TAPCELL_ROW_12_152
*1014 TAP_TAPCELL_ROW_12_153
*1015 TAP_TAPCELL_ROW_13_154
*1016 TAP_TAPCELL_ROW_13_155
*1017 TAP_TAPCELL_ROW_13_156
*1018 TAP_TAPCELL_ROW_13_157
*1019 TAP_TAPCELL_ROW_14_158
*1020 TAP_TAPCELL_ROW_14_159
*1021 TAP_TAPCELL_ROW_14_160
*1022 TAP_TAPCELL_ROW_14_161
*1023 TAP_TAPCELL_ROW_14_162
*1024 TAP_TAPCELL_ROW_15_163
*1025 TAP_TAPCELL_ROW_15_164
*1026 TAP_TAPCELL_ROW_15_165
*1027 TAP_TAPCELL_ROW_15_166
*1028 TAP_TAPCELL_ROW_16_167
*1029 TAP_TAPCELL_ROW_16_168
*1030 TAP_TAPCELL_ROW_16_169
*1031 TAP_TAPCELL_ROW_16_170
*1032 TAP_TAPCELL_ROW_16_171
*1033 TAP_TAPCELL_ROW_17_172
*1034 TAP_TAPCELL_ROW_17_173
*1035 TAP_TAPCELL_ROW_17_174
*1036 TAP_TAPCELL_ROW_17_175
*1037 TAP_TAPCELL_ROW_18_176
*1038 TAP_TAPCELL_ROW_18_177
*1039 TAP_TAPCELL_ROW_18_178
*1040 TAP_TAPCELL_ROW_18_179
*1041 TAP_TAPCELL_ROW_18_180
*1042 TAP_TAPCELL_ROW_19_181
*1043 TAP_TAPCELL_ROW_19_182
*1044 TAP_TAPCELL_ROW_19_183
*1045 TAP_TAPCELL_ROW_19_184
*1046 TAP_TAPCELL_ROW_1_100
*1047 TAP_TAPCELL_ROW_1_101
*1048 TAP_TAPCELL_ROW_1_102
*1049 TAP_TAPCELL_ROW_1_103
*1050 TAP_TAPCELL_ROW_20_185
*1051 TAP_TAPCELL_ROW_20_186
*1052 TAP_TAPCELL_ROW_20_187
*1053 TAP_TAPCELL_ROW_20_188
*1054 TAP_TAPCELL_ROW_20_189
*1055 TAP_TAPCELL_ROW_21_190
*1056 TAP_TAPCELL_ROW_21_191
*1057 TAP_TAPCELL_ROW_21_192
*1058 TAP_TAPCELL_ROW_21_193
*1059 TAP_TAPCELL_ROW_22_194
*1060 TAP_TAPCELL_ROW_22_195
*1061 TAP_TAPCELL_ROW_22_196
*1062 TAP_TAPCELL_ROW_22_197
*1063 TAP_TAPCELL_ROW_22_198
*1064 TAP_TAPCELL_ROW_23_199
*1065 TAP_TAPCELL_ROW_23_200
*1066 TAP_TAPCELL_ROW_23_201
*1067 TAP_TAPCELL_ROW_23_202
*1068 TAP_TAPCELL_ROW_24_203
*1069 TAP_TAPCELL_ROW_24_204
*1070 TAP_TAPCELL_ROW_24_205
*1071 TAP_TAPCELL_ROW_24_206
*1072 TAP_TAPCELL_ROW_24_207
*1073 TAP_TAPCELL_ROW_25_208
*1074 TAP_TAPCELL_ROW_25_209
*1075 TAP_TAPCELL_ROW_25_210
*1076 TAP_TAPCELL_ROW_25_211
*1077 TAP_TAPCELL_ROW_26_212
*1078 TAP_TAPCELL_ROW_26_213
*1079 TAP_TAPCELL_ROW_26_214
*1080 TAP_TAPCELL_ROW_26_215
*1081 TAP_TAPCELL_ROW_26_216
*1082 TAP_TAPCELL_ROW_27_217
*1083 TAP_TAPCELL_ROW_27_218
*1084 TAP_TAPCELL_ROW_27_219
*1085 TAP_TAPCELL_ROW_27_220
*1086 TAP_TAPCELL_ROW_28_221
*1087 TAP_TAPCELL_ROW_28_222
*1088 TAP_TAPCELL_ROW_28_223
*1089 TAP_TAPCELL_ROW_28_224
*1090 TAP_TAPCELL_ROW_28_225
*1091 TAP_TAPCELL_ROW_29_226
*1092 TAP_TAPCELL_ROW_29_227
*1093 TAP_TAPCELL_ROW_29_228
*1094 TAP_TAPCELL_ROW_29_229
*1095 TAP_TAPCELL_ROW_2_104
*1096 TAP_TAPCELL_ROW_2_105
*1097 TAP_TAPCELL_ROW_2_106
*1098 TAP_TAPCELL_ROW_2_107
*1099 TAP_TAPCELL_ROW_2_108
*1100 TAP_TAPCELL_ROW_30_230
*1101 TAP_TAPCELL_ROW_30_231
*1102 TAP_TAPCELL_ROW_30_232
*1103 TAP_TAPCELL_ROW_30_233
*1104 TAP_TAPCELL_ROW_30_234
*1105 TAP_TAPCELL_ROW_31_235
*1106 TAP_TAPCELL_ROW_31_236
*1107 TAP_TAPCELL_ROW_31_237
*1108 TAP_TAPCELL_ROW_31_238
*1109 TAP_TAPCELL_ROW_32_239
*1110 TAP_TAPCELL_ROW_32_240
*1111 TAP_TAPCELL_ROW_32_241
*1112 TAP_TAPCELL_ROW_32_242
*1113 TAP_TAPCELL_ROW_32_243
*1114 TAP_TAPCELL_ROW_33_244
*1115 TAP_TAPCELL_ROW_33_245
*1116 TAP_TAPCELL_ROW_33_246
*1117 TAP_TAPCELL_ROW_33_247
*1118 TAP_TAPCELL_ROW_34_248
*1119 TAP_TAPCELL_ROW_34_249
*1120 TAP_TAPCELL_ROW_34_250
*1121 TAP_TAPCELL_ROW_34_251
*1122 TAP_TAPCELL_ROW_34_252
*1123 TAP_TAPCELL_ROW_35_253
*1124 TAP_TAPCELL_ROW_35_254
*1125 TAP_TAPCELL_ROW_35_255
*1126 TAP_TAPCELL_ROW_35_256
*1127 TAP_TAPCELL_ROW_36_257
*1128 TAP_TAPCELL_ROW_36_258
*1129 TAP_TAPCELL_ROW_36_259
*1130 TAP_TAPCELL_ROW_36_260
*1131 TAP_TAPCELL_ROW_36_261
*1132 TAP_TAPCELL_ROW_37_262
*1133 TAP_TAPCELL_ROW_37_263
*1134 TAP_TAPCELL_ROW_37_264
*1135 TAP_TAPCELL_ROW_37_265
*1136 TAP_TAPCELL_ROW_38_266
*1137 TAP_TAPCELL_ROW_38_267
*1138 TAP_TAPCELL_ROW_38_268
*1139 TAP_TAPCELL_ROW_38_269
*1140 TAP_TAPCELL_ROW_38_270
*1141 TAP_TAPCELL_ROW_39_271
*1142 TAP_TAPCELL_ROW_39_272
*1143 TAP_TAPCELL_ROW_39_273
*1144 TAP_TAPCELL_ROW_39_274
*1145 TAP_TAPCELL_ROW_3_109
*1146 TAP_TAPCELL_ROW_3_110
*1147 TAP_TAPCELL_ROW_3_111
*1148 TAP_TAPCELL_ROW_3_112
*1149 TAP_TAPCELL_ROW_40_275
*1150 TAP_TAPCELL_ROW_40_276
*1151 TAP_TAPCELL_ROW_40_277
*1152 TAP_TAPCELL_ROW_40_278
*1153 TAP_TAPCELL_ROW_40_279
*1154 TAP_TAPCELL_ROW_41_280
*1155 TAP_TAPCELL_ROW_41_281
*1156 TAP_TAPCELL_ROW_41_282
*1157 TAP_TAPCELL_ROW_41_283
*1158 TAP_TAPCELL_ROW_42_284
*1159 TAP_TAPCELL_ROW_42_285
*1160 TAP_TAPCELL_ROW_42_286
*1161 TAP_TAPCELL_ROW_42_287
*1162 TAP_TAPCELL_ROW_42_288
*1163 TAP_TAPCELL_ROW_43_289
*1164 TAP_TAPCELL_ROW_43_290
*1165 TAP_TAPCELL_ROW_43_291
*1166 TAP_TAPCELL_ROW_43_292
*1167 TAP_TAPCELL_ROW_44_293
*1168 TAP_TAPCELL_ROW_44_294
*1169 TAP_TAPCELL_ROW_44_295
*1170 TAP_TAPCELL_ROW_44_296
*1171 TAP_TAPCELL_ROW_44_297
*1172 TAP_TAPCELL_ROW_44_298
*1173 TAP_TAPCELL_ROW_44_299
*1174 TAP_TAPCELL_ROW_44_300
*1175 TAP_TAPCELL_ROW_44_301
*1176 TAP_TAPCELL_ROW_44_302
*1177 TAP_TAPCELL_ROW_4_113
*1178 TAP_TAPCELL_ROW_4_114
*1179 TAP_TAPCELL_ROW_4_115
*1180 TAP_TAPCELL_ROW_4_116
*1181 TAP_TAPCELL_ROW_4_117
*1182 TAP_TAPCELL_ROW_5_118
*1183 TAP_TAPCELL_ROW_5_119
*1184 TAP_TAPCELL_ROW_5_120
*1185 TAP_TAPCELL_ROW_5_121
*1186 TAP_TAPCELL_ROW_6_122
*1187 TAP_TAPCELL_ROW_6_123
*1188 TAP_TAPCELL_ROW_6_124
*1189 TAP_TAPCELL_ROW_6_125
*1190 TAP_TAPCELL_ROW_6_126
*1191 TAP_TAPCELL_ROW_7_127
*1192 TAP_TAPCELL_ROW_7_128
*1193 TAP_TAPCELL_ROW_7_129
*1194 TAP_TAPCELL_ROW_7_130
*1195 TAP_TAPCELL_ROW_8_131
*1196 TAP_TAPCELL_ROW_8_132
*1197 TAP_TAPCELL_ROW_8_133
*1198 TAP_TAPCELL_ROW_8_134
*1199 TAP_TAPCELL_ROW_8_135
*1200 TAP_TAPCELL_ROW_9_136
*1201 TAP_TAPCELL_ROW_9_137
*1202 TAP_TAPCELL_ROW_9_138
*1203 TAP_TAPCELL_ROW_9_139
*1204 _106_
*1205 _107_
*1206 _108_
*1207 _109_
*1208 _110_
*1209 _111_
*1210 _112_
*1211 _113_
*1212 _114_
*1213 _115_
*1214 _116_
*1215 _117_
*1216 _118_
*1217 _119_
*1218 _120_
*1219 _121_
*1220 _122_
*1221 _123_
*1222 _124_
*1223 _125_
*1224 _126_
*1225 _127_
*1226 _128_
*1227 _129_
*1228 _130_
*1229 _131_
*1230 _132_
*1231 _133_
*1232 _134_
*1233 _135_
*1234 _136_
*1235 _137_
*1236 _138_
*1237 _139_
*1238 _140_
*1239 _141_
*1240 _142_
*1241 _143_
*1242 _144_
*1243 _145_
*1244 _146_
*1245 _147_
*1246 _148_
*1247 _149_
*1248 _150_
*1249 _151_
*1250 _152_
*1251 _153_
*1252 _154_
*1253 _155_
*1254 _156_
*1255 _157_
*1256 _158_
*1257 _159_
*1258 _160_
*1259 _161_
*1260 _162_
*1261 _163_
*1262 _164_
*1263 _165_
*1264 _166_
*1265 _167_
*1266 _168_
*1267 _169_
*1268 _170_
*1269 _171_
*1270 _172_
*1271 _173_
*1272 _174_
*1273 _175_
*1274 _176_
*1275 _177_
*1276 _178_
*1277 _179_
*1278 _180_
*1279 _181_
*1280 _182_
*1281 _183_
*1282 _184_
*1283 _185_
*1284 _186_
*1285 _187_
*1286 _188_
*1287 _189_
*1288 _190_
*1289 _191_
*1290 _192_
*1291 _193_
*1292 _194_
*1293 _195_
*1294 _196_
*1295 _197_
*1296 _198_
*1297 _199_
*1298 _200_
*1299 _201_
*1300 _202_
*1301 _203_
*1302 _204_
*1303 _205_
*1304 _206_
*1305 _207_
*1306 _208_
*1307 _209_
*1308 _210_
*1309 _211_
*1310 _212_
*1311 _213_
*1312 _214_
*1313 _215_
*1314 _216_
*1315 _217_
*1316 _218_
*1317 _219_
*1318 _220_
*1319 _221_
*1320 _222_
*1321 _223_
*1322 _224_
*1323 _225_
*1324 _226_
*1325 _227_
*1326 _228_
*1327 _229_
*1328 _230_
*1329 _231_
*1330 _232_
*1331 _233_
*1332 _234_
*1333 _235_
*1334 _236_
*1335 _237_
*1336 _238_
*1337 _239_
*1338 _240_
*1339 _241_
*1340 clkbuf_0_clk
*1341 clkbuf_1_0__f_clk
*1342 clkbuf_1_1__f_clk
*1343 output1
*1344 output10
*1345 output11
*1346 output12
*1347 output13
*1348 output14
*1349 output15
*1350 output16
*1351 output17
*1352 output18
*1353 output19
*1354 output2
*1355 output20
*1356 output21
*1357 output22
*1358 output23
*1359 output24
*1360 output25
*1361 output26
*1362 output3
*1363 output4
*1364 output5
*1365 output6
*1366 output7
*1367 output8
*1368 output9

*PORTS
clk I
segm[0] O
segm[10] O
segm[11] O
segm[12] O
segm[13] O
segm[1] O
segm[2] O
segm[3] O
segm[4] O
segm[5] O
segm[6] O
segm[7] O
segm[8] O
segm[9] O
sel[0] O
sel[10] O
sel[11] O
sel[1] O
sel[2] O
sel[3] O
sel[4] O
sel[5] O
sel[6] O
sel[7] O
sel[8] O
sel[9] O

*D_NET *1 0.0127513
*CONN
*P clk I
*I *199:I I *D gf180mcu_fd_sc_mcu7t5v0__antenna
*I *1340:I I *D gf180mcu_fd_sc_mcu7t5v0__clkbuf_16
*CAP
1 clk 0.00432994
2 *199:I 0
3 *1340:I 0.000307132
4 *1:15 0.00463707
5 *1340:I *1216:I 0
6 *1340:I *1279:A1 0
7 *1:15 *1223:A1 7.8324e-05
8 *1:15 *1223:A2 7.856e-05
9 *1:15 *1242:A1 4.88658e-05
10 *1:15 *1257:A1 0.000408943
11 *1:15 *1304:A1 0
12 *1:15 *1304:B1 0.000125442
13 *1:15 *1360:I 0.000397501
14 *1:15 *1367:I 0
15 *1:15 *97:20 0.00127015
16 *1:15 *97:22 0.000454932
17 *1:15 *112:10 0.000364218
18 *1:15 *127:19 7.08639e-05
19 *1:15 *127:40 0.00017933
*RES
1 clk *1:15 48.346 
2 *1:15 *1340:I 6.324 
3 *1:15 *199:I 4.5 
*END

*D_NET *2 0.000735
*CONN
*P segm[0] O
*I *1343:Z O *D gf180mcu_fd_sc_mcu7t5v0__buf_8
*CAP
1 segm[0] 0.000334047
2 *1343:Z 0.000334047
3 segm[0] segm[13] 6.69047e-05
*RES
1 *1343:Z segm[0] 11.394 
*END

*D_NET *3 0.0017986
*CONN
*P segm[10] O
*I *1354:Z O *D gf180mcu_fd_sc_mcu7t5v0__buf_8
*CAP
1 segm[10] 0.000899298
2 *1354:Z 0.000899298
*RES
1 *1354:Z segm[10] 19.542 
*END

*D_NET *4 0.00135191
*CONN
*P segm[11] O
*I *1362:Z O *D gf180mcu_fd_sc_mcu7t5v0__buf_8
*CAP
1 segm[11] 0.000675955
2 *1362:Z 0.000675955
*RES
1 *1362:Z segm[11] 9.022 
*END

*D_NET *5 0.00083944
*CONN
*P segm[12] O
*I *1363:Z O *D gf180mcu_fd_sc_mcu7t5v0__buf_8
*CAP
1 segm[12] 0.00041972
2 *1363:Z 0.00041972
*RES
1 *1363:Z segm[12] 11.698 
*END

*D_NET *6 0.000474771
*CONN
*P segm[13] O
*I *1364:Z O *D gf180mcu_fd_sc_mcu7t5v0__buf_8
*CAP
1 segm[13] 0.000170481
2 *1364:Z 0.000170481
3 segm[13] segm[3] 6.69047e-05
4 segm[0] segm[13] 6.69047e-05
*RES
1 *1364:Z segm[13] 10.71 
*END

*D_NET *7 0.000484858