*SPEF "ieee 1481-1999"
*DESIGN "ita52"
*DATE "11:11:11 Fri 11 11, 1111"
*VENDOR "OpenRCX"
*PROGRAM "Parallel Extraction"
*VERSION "1.0"
*DESIGN_FLOW "NAME_SCOPE LOCAL" "PIN_CAP NONE"
*DIVIDER /
*DELIMITER :
*BUS_DELIMITER []
*T_UNIT 1 NS
*C_UNIT 1 PF
*R_UNIT 1 OHM
*L_UNIT 1 HENRY

*NAME_MAP
*1 clk
*2 segm[0]
*3 segm[10]
*4 segm[11]
*5 segm[12]
*6 segm[13]
*7 segm[1]
*8 segm[2]
*9 segm[3]
*10 segm[4]
*11 segm[5]
*12 segm[6]
*13 segm[7]
*14 segm[8]
*15 segm[9]
*16 sel[0]
*17 sel[10]
*18 sel[11]
*19 sel[1]
*20 sel[2]
*21 sel[3]
*22 sel[4]
*23 sel[5]
*24 sel[6]
*25 sel[7]
*26 sel[8]
*27 sel[9]
*30 _000_
*31 _001_
*32 _002_
*33 _003_
*34 _004_
*35 _005_
*36 _006_
*37 _007_
*38 _008_
*39 _009_
*40 _010_
*41 _011_
*42 _012_
*43 _013_
*44 _014_
*45 _015_
*46 _016_
*47 _017_
*48 _018_
*49 _019_
*50 _020_
*51 _021_
*52 _022_
*53 _023_
*54 _024_
*55 _025_
*56 _026_
*57 _027_
*58 _028_
*59 _029_
*60 _030_
*61 _031_
*62 _032_
*63 _033_
*64 _034_
*65 _035_
*66 _036_
*67 _037_
*68 _038_
*69 _039_
*70 _040_
*71 _041_
*72 _042_
*73 _043_
*74 _044_
*75 _045_
*76 _046_
*77 _047_
*78 _048_
*79 _049_
*80 _050_
*81 _051_
*82 _052_
*83 _053_
*84 _054_
*85 _055_
*86 _056_
*87 _057_
*88 _058_
*89 _059_
*90 _060_
*91 _061_
*92 _062_
*93 _063_
*94 _064_
*95 _065_
*96 _066_
*97 _067_
*98 _068_
*99 _069_
*100 _070_
*101 _071_
*102 _072_
*103 _073_
*104 _074_
*105 _075_
*106 _076_
*107 _077_
*108 _078_
*109 _079_
*110 _080_
*111 _081_
*112 _082_
*113 _083_
*114 _084_
*115 _085_
*116 _086_
*117 _087_
*118 _088_
*119 _089_
*120 _090_
*121 _091_
*122 _092_
*123 _093_
*124 _094_
*125 _095_
*126 _096_
*127 _097_
*128 _098_
*129 _099_
*130 _100_
*131 _101_
*132 _102_
*133 _103_
*134 _104_
*135 _105_
*136 _106_
*137 _107_
*138 _108_
*139 _109_
*140 _110_
*141 _111_
*142 _112_
*143 _113_
*144 _114_
*145 clknet_0_clk
*146 clknet_1_0__leaf_clk
*147 clknet_1_1__leaf_clk
*148 dut52\.count\[0\]
*149 dut52\.count\[1\]
*150 dut52\.count\[2\]
*151 dut52\.count\[3\]
*152 net1
*153 net10
*154 net11
*155 net12
*156 net13
*157 net14
*158 net15
*159 net16
*160 net17
*161 net18
*162 net19
*163 net2
*164 net20
*165 net21
*166 net22
*167 net23
*168 net24
*169 net25
*170 net26
*171 net3
*172 net4
*173 net5
*174 net6
*175 net7
*176 net8
*177 net9
*178 ANTENNA__230__CLK
*179 ANTENNA__231__CLK
*180 ANTENNA__232__CLK
*181 ANTENNA__233__CLK
*182 ANTENNA__234__CLK
*183 ANTENNA__235__CLK
*184 ANTENNA__236__CLK
*185 ANTENNA__237__CLK
*186 ANTENNA__238__CLK
*187 ANTENNA__239__CLK
*188 ANTENNA__240__CLK
*189 ANTENNA__241__CLK
*190 ANTENNA__242__CLK
*191 ANTENNA__243__CLK
*192 ANTENNA__244__CLK
*193 ANTENNA__245__CLK
*194 ANTENNA__246__CLK
*195 ANTENNA__247__CLK
*196 ANTENNA__248__CLK
*197 ANTENNA__249__CLK
*198 ANTENNA__250__CLK
*199 ANTENNA__251__CLK
*200 ANTENNA__252__CLK
*201 ANTENNA__253__CLK
*202 ANTENNA__254__CLK
*203 ANTENNA__255__CLK
*204 ANTENNA__256__CLK
*205 ANTENNA_clkbuf_0_clk_I
*206 FILLER_0_0_104
*207 FILLER_0_0_138
*208 FILLER_0_0_165
*209 FILLER_0_0_169
*210 FILLER_0_0_172
*211 FILLER_0_0_176
*212 FILLER_0_0_2
*213 FILLER_0_0_232
*214 FILLER_0_0_236
*215 FILLER_0_0_240
*216 FILLER_0_0_274
*217 FILLER_0_0_308
*218 FILLER_0_0_342
*219 FILLER_0_0_346
*220 FILLER_0_0_348
*221 FILLER_0_0_36
*222 FILLER_0_0_70
*223 FILLER_0_10_101
*224 FILLER_0_10_107
*225 FILLER_0_10_171
*226 FILLER_0_10_177
*227 FILLER_0_10_2
*228 FILLER_0_10_241
*229 FILLER_0_10_247
*230 FILLER_0_10_311
*231 FILLER_0_10_317
*232 FILLER_0_10_34
*233 FILLER_0_10_37
*234 FILLER_0_11_136
*235 FILLER_0_11_142
*236 FILLER_0_11_2
*237 FILLER_0_11_206
*238 FILLER_0_11_212
*239 FILLER_0_11_276
*240 FILLER_0_11_282
*241 FILLER_0_11_346
*242 FILLER_0_11_348
*243 FILLER_0_11_66
*244 FILLER_0_11_72
*245 FILLER_0_12_101
*246 FILLER_0_12_107
*247 FILLER_0_12_139
*248 FILLER_0_12_169
*249 FILLER_0_12_173
*250 FILLER_0_12_177
*251 FILLER_0_12_183
*252 FILLER_0_12_2
*253 FILLER_0_12_215
*254 FILLER_0_12_231
*255 FILLER_0_12_239
*256 FILLER_0_12_243
*257 FILLER_0_12_247
*258 FILLER_0_12_311
*259 FILLER_0_12_317
*260 FILLER_0_12_34
*261 FILLER_0_12_37
*262 FILLER_0_13_136
*263 FILLER_0_13_139
*264 FILLER_0_13_142
*265 FILLER_0_13_150
*266 FILLER_0_13_2
*267 FILLER_0_13_212
*268 FILLER_0_13_216
*269 FILLER_0_13_282
*270 FILLER_0_13_346
*271 FILLER_0_13_348
*272 FILLER_0_13_66
*273 FILLER_0_13_72
*274 FILLER_0_14_101
*275 FILLER_0_14_107
*276 FILLER_0_14_143
*277 FILLER_0_14_147
*278 FILLER_0_14_151
*279 FILLER_0_14_160
*280 FILLER_0_14_167
*281 FILLER_0_14_185
*282 FILLER_0_14_187
*283 FILLER_0_14_2
*284 FILLER_0_14_223
*285 FILLER_0_14_227
*286 FILLER_0_14_243
*287 FILLER_0_14_247
*288 FILLER_0_14_311
*289 FILLER_0_14_317
*290 FILLER_0_14_34
*291 FILLER_0_14_37
*292 FILLER_0_15_104
*293 FILLER_0_15_108
*294 FILLER_0_15_138
*295 FILLER_0_15_155
*296 FILLER_0_15_171
*297 FILLER_0_15_179
*298 FILLER_0_15_186
*299 FILLER_0_15_188
*300 FILLER_0_15_197
*301 FILLER_0_15_2
*302 FILLER_0_15_205
*303 FILLER_0_15_209
*304 FILLER_0_15_212
*305 FILLER_0_15_214
*306 FILLER_0_15_221
*307 FILLER_0_15_254
*308 FILLER_0_15_258
*309 FILLER_0_15_274
*310 FILLER_0_15_278
*311 FILLER_0_15_282
*312 FILLER_0_15_346
*313 FILLER_0_15_348
*314 FILLER_0_15_66
*315 FILLER_0_15_72
*316 FILLER_0_16_101
*317 FILLER_0_16_107
*318 FILLER_0_16_123
*319 FILLER_0_16_131
*320 FILLER_0_16_156
*321 FILLER_0_16_172
*322 FILLER_0_16_174
*323 FILLER_0_16_177
*324 FILLER_0_16_193
*325 FILLER_0_16_195
*326 FILLER_0_16_2
*327 FILLER_0_16_210
*328 FILLER_0_16_226
*329 FILLER_0_16_230
*330 FILLER_0_16_232
*331 FILLER_0_16_235
*332 FILLER_0_16_243
*333 FILLER_0_16_251
*334 FILLER_0_16_317
*335 FILLER_0_16_34
*336 FILLER_0_16_37
*337 FILLER_0_17_116
*338 FILLER_0_17_120
*339 FILLER_0_17_136
*340 FILLER_0_17_142
*341 FILLER_0_17_158
*342 FILLER_0_17_160
*343 FILLER_0_17_167
*344 FILLER_0_17_199
*345 FILLER_0_17_2
*346 FILLER_0_17_207
*347 FILLER_0_17_209
*348 FILLER_0_17_212
*349 FILLER_0_17_220
*350 FILLER_0_17_224
*351 FILLER_0_17_232
*352 FILLER_0_17_234
*353 FILLER_0_17_264
*354 FILLER_0_17_282
*355 FILLER_0_17_314
*356 FILLER_0_17_322
*357 FILLER_0_17_66
*358 FILLER_0_17_72
*359 FILLER_0_17_80
*360 FILLER_0_17_84
*361 FILLER_0_17_86
*362 FILLER_0_18_101
*363 FILLER_0_18_107
*364 FILLER_0_18_109
*365 FILLER_0_18_116
*366 FILLER_0_18_132
*367 FILLER_0_18_140
*368 FILLER_0_18_173
*369 FILLER_0_18_177
*370 FILLER_0_18_181
*371 FILLER_0_18_185
*372 FILLER_0_18_187
*373 FILLER_0_18_193
*374 FILLER_0_18_199
*375 FILLER_0_18_2
*376 FILLER_0_18_203
*377 FILLER_0_18_225
*378 FILLER_0_18_239
*379 FILLER_0_18_243
*380 FILLER_0_18_247
*381 FILLER_0_18_251
*382 FILLER_0_18_257
*383 FILLER_0_18_289
*384 FILLER_0_18_305
*385 FILLER_0_18_313
*386 FILLER_0_18_317
*387 FILLER_0_18_321
*388 FILLER_0_18_34
*389 FILLER_0_18_37
*390 FILLER_0_19_127
*391 FILLER_0_19_135
*392 FILLER_0_19_139
*393 FILLER_0_19_142
*394 FILLER_0_19_150
*395 FILLER_0_19_152
*396 FILLER_0_19_176
*397 FILLER_0_19_191
*398 FILLER_0_19_198
*399 FILLER_0_19_2
*400 FILLER_0_19_206
*401 FILLER_0_19_234
*402 FILLER_0_19_266
*403 FILLER_0_19_274
*404 FILLER_0_19_278
*405 FILLER_0_19_282
*406 FILLER_0_19_346
*407 FILLER_0_19_348
*408 FILLER_0_19_66
*409 FILLER_0_19_72
*410 FILLER_0_19_80
*411 FILLER_0_19_84
*412 FILLER_0_1_136
*413 FILLER_0_1_168
*414 FILLER_0_1_195
*415 FILLER_0_1_2
*416 FILLER_0_1_203
*417 FILLER_0_1_207
*418 FILLER_0_1_209
*419 FILLER_0_1_238
*420 FILLER_0_1_270
*421 FILLER_0_1_278
*422 FILLER_0_1_282
*423 FILLER_0_1_346
*424 FILLER_0_1_348
*425 FILLER_0_1_66
*426 FILLER_0_1_72
*427 FILLER_0_20_101
*428 FILLER_0_20_107
*429 FILLER_0_20_117
*430 FILLER_0_20_135
*431 FILLER_0_20_143
*432 FILLER_0_20_155
*433 FILLER_0_20_157
*434 FILLER_0_20_172
*435 FILLER_0_20_174
*436 FILLER_0_20_2
*437 FILLER_0_20_207
*438 FILLER_0_20_215
*439 FILLER_0_20_247
*440 FILLER_0_20_251
*441 FILLER_0_20_317
*442 FILLER_0_20_321
*443 FILLER_0_20_34
*444 FILLER_0_20_37
*445 FILLER_0_21_104
*446 FILLER_0_21_112
*447 FILLER_0_21_114
*448 FILLER_0_21_137
*449 FILLER_0_21_139
*450 FILLER_0_21_142
*451 FILLER_0_21_2
*452 FILLER_0_21_218
*453 FILLER_0_21_220
*454 FILLER_0_21_247
*455 FILLER_0_21_251
*456 FILLER_0_21_263
*457 FILLER_0_21_279
*458 FILLER_0_21_282
*459 FILLER_0_21_314
*460 FILLER_0_21_322
*461 FILLER_0_21_66
*462 FILLER_0_21_72
*463 FILLER_0_22_101
*464 FILLER_0_22_107
*465 FILLER_0_22_115
*466 FILLER_0_22_119
*467 FILLER_0_22_132
*468 FILLER_0_22_147
*469 FILLER_0_22_159
*470 FILLER_0_22_2
*471 FILLER_0_22_247
*472 FILLER_0_22_283
*473 FILLER_0_22_317
*474 FILLER_0_22_321
*475 FILLER_0_22_34
*476 FILLER_0_22_37
*477 FILLER_0_23_117
*478 FILLER_0_23_121
*479 FILLER_0_23_129
*480 FILLER_0_23_133
*481 FILLER_0_23_197
*482 FILLER_0_23_199
*483 FILLER_0_23_2
*484 FILLER_0_23_206
*485 FILLER_0_23_212
*486 FILLER_0_23_216
*487 FILLER_0_23_252
*488 FILLER_0_23_256
*489 FILLER_0_23_272
*490 FILLER_0_23_282
*491 FILLER_0_23_314
*492 FILLER_0_23_322
*493 FILLER_0_23_66
*494 FILLER_0_23_72
*495 FILLER_0_24_101
*496 FILLER_0_24_107
*497 FILLER_0_24_111
*498 FILLER_0_24_113
*499 FILLER_0_24_119
*500 FILLER_0_24_133
*501 FILLER_0_24_141
*502 FILLER_0_24_177
*503 FILLER_0_24_195
*504 FILLER_0_24_199
*505 FILLER_0_24_2
*506 FILLER_0_24_206
*507 FILLER_0_24_236
*508 FILLER_0_24_240
*509 FILLER_0_24_244
*510 FILLER_0_24_247
*511 FILLER_0_24_311
*512 FILLER_0_24_317
*513 FILLER_0_24_321
*514 FILLER_0_24_34
*515 FILLER_0_24_37
*516 FILLER_0_25_116
*517 FILLER_0_25_132
*518 FILLER_0_25_142
*519 FILLER_0_25_152
*520 FILLER_0_25_166
*521 FILLER_0_25_182
*522 FILLER_0_25_189
*523 FILLER_0_25_193
*524 FILLER_0_25_195
*525 FILLER_0_25_201
*526 FILLER_0_25_209
*527 FILLER_0_25_212
*528 FILLER_0_25_221
*529 FILLER_0_25_223
*530 FILLER_0_25_229
*531 FILLER_0_25_245
*532 FILLER_0_25_249
*533 FILLER_0_25_255
*534 FILLER_0_25_262
*535 FILLER_0_25_278
*536 FILLER_0_25_28
*537 FILLER_0_25_282
*538 FILLER_0_25_346
*539 FILLER_0_25_348
*540 FILLER_0_25_60
*541 FILLER_0_25_68
*542 FILLER_0_25_72
*543 FILLER_0_25_80
*544 FILLER_0_25_84
*545 FILLER_0_25_86
*546 FILLER_0_26_101
*547 FILLER_0_26_107
*548 FILLER_0_26_111
*549 FILLER_0_26_113
*550 FILLER_0_26_118
*551 FILLER_0_26_122
*552 FILLER_0_26_130
*553 FILLER_0_26_134
*554 FILLER_0_26_142
*555 FILLER_0_26_146
*556 FILLER_0_26_167
*557 FILLER_0_26_177
*558 FILLER_0_26_193
*559 FILLER_0_26_2
*560 FILLER_0_26_225
*561 FILLER_0_26_241
*562 FILLER_0_26_276
*563 FILLER_0_26_308
*564 FILLER_0_26_312
*565 FILLER_0_26_314
*566 FILLER_0_26_317
*567 FILLER_0_26_34
*568 FILLER_0_26_37
*569 FILLER_0_27_116
*570 FILLER_0_27_127
*571 FILLER_0_27_135
*572 FILLER_0_27_139
*573 FILLER_0_27_150
*574 FILLER_0_27_158
*575 FILLER_0_27_173
*576 FILLER_0_27_2
*577 FILLER_0_27_205
*578 FILLER_0_27_209
*579 FILLER_0_27_212
*580 FILLER_0_27_228
*581 FILLER_0_27_263
*582 FILLER_0_27_279
*583 FILLER_0_27_282
*584 FILLER_0_27_314
*585 FILLER_0_27_322
*586 FILLER_0_27_66
*587 FILLER_0_27_72
*588 FILLER_0_27_80
*589 FILLER_0_27_84
*590 FILLER_0_27_86
*591 FILLER_0_28_101
*592 FILLER_0_28_107
*593 FILLER_0_28_115
*594 FILLER_0_28_119
*595 FILLER_0_28_130
*596 FILLER_0_28_134
*597 FILLER_0_28_150
*598 FILLER_0_28_154
*599 FILLER_0_28_156
*600 FILLER_0_28_173
*601 FILLER_0_28_183
*602 FILLER_0_28_197
*603 FILLER_0_28_220
*604 FILLER_0_28_228
*605 FILLER_0_28_230
*606 FILLER_0_28_236
*607 FILLER_0_28_257
*608 FILLER_0_28_28
*609 FILLER_0_28_289
*610 FILLER_0_28_305
*611 FILLER_0_28_313
*612 FILLER_0_28_317
*613 FILLER_0_28_32
*614 FILLER_0_28_34
*615 FILLER_0_28_37
*616 FILLER_0_29_124
*617 FILLER_0_29_139
*618 FILLER_0_29_142
*619 FILLER_0_29_172
*620 FILLER_0_29_176
*621 FILLER_0_29_2
*622 FILLER_0_29_206
*623 FILLER_0_29_224
*624 FILLER_0_29_255
*625 FILLER_0_29_259
*626 FILLER_0_29_275
*627 FILLER_0_29_279
*628 FILLER_0_29_282
*629 FILLER_0_29_314
*630 FILLER_0_29_322
*631 FILLER_0_29_66
*632 FILLER_0_29_72
*633 FILLER_0_29_88
*634 FILLER_0_29_92
*635 FILLER_0_29_94
*636 FILLER_0_2_101
*637 FILLER_0_2_107
*638 FILLER_0_2_171
*639 FILLER_0_2_177
*640 FILLER_0_2_2
*641 FILLER_0_2_209
*642 FILLER_0_2_243
*643 FILLER_0_2_247
*644 FILLER_0_2_311
*645 FILLER_0_2_317
*646 FILLER_0_2_34
*647 FILLER_0_2_37
*648 FILLER_0_30_101
*649 FILLER_0_30_107
*650 FILLER_0_30_111
*651 FILLER_0_30_142
*652 FILLER_0_30_177
*653 FILLER_0_30_181
*654 FILLER_0_30_189
*655 FILLER_0_30_193
*656 FILLER_0_30_195
*657 FILLER_0_30_225
*658 FILLER_0_30_229
*659 FILLER_0_30_247
*660 FILLER_0_30_28
*661 FILLER_0_30_311
*662 FILLER_0_30_317
*663 FILLER_0_30_32
*664 FILLER_0_30_321
*665 FILLER_0_30_34
*666 FILLER_0_30_37
*667 FILLER_0_31_136
*668 FILLER_0_31_142
*669 FILLER_0_31_2
*670 FILLER_0_31_206
*671 FILLER_0_31_212
*672 FILLER_0_31_276
*673 FILLER_0_31_282
*674 FILLER_0_31_346
*675 FILLER_0_31_348
*676 FILLER_0_31_66
*677 FILLER_0_31_72
*678 FILLER_0_32_101
*679 FILLER_0_32_107
*680 FILLER_0_32_171
*681 FILLER_0_32_177
*682 FILLER_0_32_2
*683 FILLER_0_32_241
*684 FILLER_0_32_247
*685 FILLER_0_32_311
*686 FILLER_0_32_317
*687 FILLER_0_32_34
*688 FILLER_0_32_37
*689 FILLER_0_33_136
*690 FILLER_0_33_142
*691 FILLER_0_33_2
*692 FILLER_0_33_206
*693 FILLER_0_33_212
*694 FILLER_0_33_276
*695 FILLER_0_33_282
*696 FILLER_0_33_346
*697 FILLER_0_33_348
*698 FILLER_0_33_66
*699 FILLER_0_33_72
*700 FILLER_0_34_101
*701 FILLER_0_34_107
*702 FILLER_0_34_171
*703 FILLER_0_34_177
*704 FILLER_0_34_2
*705 FILLER_0_34_241
*706 FILLER_0_34_247
*707 FILLER_0_34_311
*708 FILLER_0_34_317
*709 FILLER_0_34_34
*710 FILLER_0_34_37
*711 FILLER_0_35_136
*712 FILLER_0_35_142
*713 FILLER_0_35_2
*714 FILLER_0_35_206
*715 FILLER_0_35_212
*716 FILLER_0_35_276
*717 FILLER_0_35_282
*718 FILLER_0_35_346
*719 FILLER_0_35_348
*720 FILLER_0_35_66
*721 FILLER_0_35_72
*722 FILLER_0_36_101
*723 FILLER_0_36_107
*724 FILLER_0_36_171
*725 FILLER_0_36_177
*726 FILLER_0_36_2
*727 FILLER_0_36_241
*728 FILLER_0_36_247
*729 FILLER_0_36_311
*730 FILLER_0_36_317
*731 FILLER_0_36_34
*732 FILLER_0_36_37
*733 FILLER_0_37_136
*734 FILLER_0_37_142
*735 FILLER_0_37_2
*736 FILLER_0_37_206
*737 FILLER_0_37_212
*738 FILLER_0_37_276
*739 FILLER_0_37_282
*740 FILLER_0_37_346
*741 FILLER_0_37_348
*742 FILLER_0_37_66
*743 FILLER_0_37_72
*744 FILLER_0_38_101
*745 FILLER_0_38_107
*746 FILLER_0_38_171
*747 FILLER_0_38_177
*748 FILLER_0_38_2
*749 FILLER_0_38_241
*750 FILLER_0_38_247
*751 FILLER_0_38_311
*752 FILLER_0_38_317
*753 FILLER_0_38_34
*754 FILLER_0_38_37
*755 FILLER_0_39_136
*756 FILLER_0_39_142
*757 FILLER_0_39_2
*758 FILLER_0_39_206
*759 FILLER_0_39_212
*760 FILLER_0_39_276
*761 FILLER_0_39_282
*762 FILLER_0_39_346
*763 FILLER_0_39_348
*764 FILLER_0_39_66
*765 FILLER_0_39_72
*766 FILLER_0_3_136
*767 FILLER_0_3_142
*768 FILLER_0_3_2
*769 FILLER_0_3_206
*770 FILLER_0_3_212
*771 FILLER_0_3_276
*772 FILLER_0_3_282
*773 FILLER_0_3_346
*774 FILLER_0_3_348
*775 FILLER_0_3_66
*776 FILLER_0_3_72
*777 FILLER_0_40_101
*778 FILLER_0_40_107
*779 FILLER_0_40_171
*780 FILLER_0_40_177
*781 FILLER_0_40_2
*782 FILLER_0_40_241
*783 FILLER_0_40_247
*784 FILLER_0_40_311
*785 FILLER_0_40_317
*786 FILLER_0_40_34
*787 FILLER_0_40_37
*788 FILLER_0_41_136
*789 FILLER_0_41_142
*790 FILLER_0_41_2
*791 FILLER_0_41_206
*792 FILLER_0_41_212
*793 FILLER_0_41_276
*794 FILLER_0_41_282
*795 FILLER_0_41_346
*796 FILLER_0_41_348
*797 FILLER_0_41_66
*798 FILLER_0_41_72
*799 FILLER_0_42_101
*800 FILLER_0_42_107
*801 FILLER_0_42_171
*802 FILLER_0_42_177
*803 FILLER_0_42_2
*804 FILLER_0_42_241
*805 FILLER_0_42_247
*806 FILLER_0_42_311
*807 FILLER_0_42_317
*808 FILLER_0_42_34
*809 FILLER_0_42_37
*810 FILLER_0_43_136
*811 FILLER_0_43_142
*812 FILLER_0_43_158
*813 FILLER_0_43_166
*814 FILLER_0_43_168
*815 FILLER_0_43_195
*816 FILLER_0_43_2
*817 FILLER_0_43_203
*818 FILLER_0_43_207
*819 FILLER_0_43_209
*820 FILLER_0_43_212
*821 FILLER_0_43_216
*822 FILLER_0_43_243
*823 FILLER_0_43_275
*824 FILLER_0_43_279
*825 FILLER_0_43_282
*826 FILLER_0_43_346
*827 FILLER_0_43_348
*828 FILLER_0_43_66
*829 FILLER_0_43_72
*830 FILLER_0_44_104
*831 FILLER_0_44_138
*832 FILLER_0_44_165
*833 FILLER_0_44_169
*834 FILLER_0_44_172
*835 FILLER_0_44_174
*836 FILLER_0_44_2
*837 FILLER_0_44_201
*838 FILLER_0_44_203
*839 FILLER_0_44_232
*840 FILLER_0_44_236
*841 FILLER_0_44_266
*842 FILLER_0_44_270
*843 FILLER_0_44_274
*844 FILLER_0_44_308
*845 FILLER_0_44_342
*846 FILLER_0_44_346
*847 FILLER_0_44_348
*848 FILLER_0_44_36
*849 FILLER_0_44_70
*850 FILLER_0_4_101
*851 FILLER_0_4_107
*852 FILLER_0_4_171
*853 FILLER_0_4_177
*854 FILLER_0_4_2
*855 FILLER_0_4_241
*856 FILLER_0_4_247
*857 FILLER_0_4_311
*858 FILLER_0_4_317
*859 FILLER_0_4_34
*860 FILLER_0_4_37
*861 FILLER_0_5_136
*862 FILLER_0_5_142
*863 FILLER_0_5_2
*864 FILLER_0_5_206
*865 FILLER_0_5_212
*866 FILLER_0_5_276
*867 FILLER_0_5_282
*868 FILLER_0_5_346
*869 FILLER_0_5_348
*870 FILLER_0_5_66
*871 FILLER_0_5_72
*872 FILLER_0_6_101
*873 FILLER_0_6_107
*874 FILLER_0_6_171
*875 FILLER_0_6_177
*876 FILLER_0_6_2
*877 FILLER_0_6_241
*878 FILLER_0_6_247
*879 FILLER_0_6_311
*880 FILLER_0_6_317
*881 FILLER_0_6_34
*882 FILLER_0_6_37
*883 FILLER_0_7_136
*884 FILLER_0_7_142
*885 FILLER_0_7_2
*886 FILLER_0_7_206
*887 FILLER_0_7_212
*888 FILLER_0_7_276
*889 FILLER_0_7_282
*890 FILLER_0_7_346
*891 FILLER_0_7_348
*892 FILLER_0_7_66
*893 FILLER_0_7_72
*894 FILLER_0_8_101
*895 FILLER_0_8_107
*896 FILLER_0_8_171
*897 FILLER_0_8_177
*898 FILLER_0_8_2
*899 FILLER_0_8_241
*900 FILLER_0_8_247
*901 FILLER_0_8_311
*902 FILLER_0_8_317
*903 FILLER_0_8_34
*904 FILLER_0_8_37
*905 FILLER_0_9_136
*906 FILLER_0_9_142
*907 FILLER_0_9_2
*908 FILLER_0_9_206
*909 FILLER_0_9_212
*910 FILLER_0_9_276
*911 FILLER_0_9_282
*912 FILLER_0_9_346
*913 FILLER_0_9_348
*914 FILLER_0_9_66
*915 FILLER_0_9_72
*916 PHY_EDGE_ROW_0_Left_45
*917 PHY_EDGE_ROW_0_Right_0
*918 PHY_EDGE_ROW_10_Left_55
*919 PHY_EDGE_ROW_10_Right_10
*920 PHY_EDGE_ROW_11_Left_56
*921 PHY_EDGE_ROW_11_Right_11
*922 PHY_EDGE_ROW_12_Left_57
*923 PHY_EDGE_ROW_12_Right_12
*924 PHY_EDGE_ROW_13_Left_58
*925 PHY_EDGE_ROW_13_Right_13
*926 PHY_EDGE_ROW_14_Left_59
*927 PHY_EDGE_ROW_14_Right_14
*928 PHY_EDGE_ROW_15_Left_60
*929 PHY_EDGE_ROW_15_Right_15
*930 PHY_EDGE_ROW_16_Left_61
*931 PHY_EDGE_ROW_16_Right_16
*932 PHY_EDGE_ROW_17_Left_62
*933 PHY_EDGE_ROW_17_Right_17
*934 PHY_EDGE_ROW_18_Left_63
*935 PHY_EDGE_ROW_18_Right_18
*936 PHY_EDGE_ROW_19_Left_64
*937 PHY_EDGE_ROW_19_Right_19
*938 PHY_EDGE_ROW_1_Left_46
*939 PHY_EDGE_ROW_1_Right_1
*940 PHY_EDGE_ROW_20_Left_65
*941 PHY_EDGE_ROW_20_Right_20
*942 PHY_EDGE_ROW_21_Left_66
*943 PHY_EDGE_ROW_21_Right_21
*944 PHY_EDGE_ROW_22_Left_67
*945 PHY_EDGE_ROW_22_Right_22
*946 PHY_EDGE_ROW_23_Left_68
*947 PHY_EDGE_ROW_23_Right_23
*948 PHY_EDGE_ROW_24_Left_69
*949 PHY_EDGE_ROW_24_Right_24
*950 PHY_EDGE_ROW_25_Left_70
*951 PHY_EDGE_ROW_25_Right_25
*952 PHY_EDGE_ROW_26_Left_71
*953 PHY_EDGE_ROW_26_Right_26
*954 PHY_EDGE_ROW_27_Left_72
*955 PHY_EDGE_ROW_27_Right_27
*956 PHY_EDGE_ROW_28_Left_73
*957 PHY_EDGE_ROW_28_Right_28
*958 PHY_EDGE_ROW_29_Left_74
*959 PHY_EDGE_ROW_29_Right_29
*960 PHY_EDGE_ROW_2_Left_47
*961 PHY_EDGE_ROW_2_Right_2
*962 PHY_EDGE_ROW_30_Left_75
*963 PHY_EDGE_ROW_30_Right_30
*964 PHY_EDGE_ROW_31_Left_76
*965 PHY_EDGE_ROW_31_Right_31
*966 PHY_EDGE_ROW_32_Left_77
*967 PHY_EDGE_ROW_32_Right_32
*968 PHY_EDGE_ROW_33_Left_78
*969 PHY_EDGE_ROW_33_Right_33
*970 PHY_EDGE_ROW_34_Left_79
*971 PHY_EDGE_ROW_34_Right_34
*972 PHY_EDGE_ROW_35_Left_80
*973 PHY_EDGE_ROW_35_Right_35
*974 PHY_EDGE_ROW_36_Left_81
*975 PHY_EDGE_ROW_36_Right_36
*976 PHY_EDGE_ROW_37_Left_82
*977 PHY_EDGE_ROW_37_Right_37
*978 PHY_EDGE_ROW_38_Left_83
*979 PHY_EDGE_ROW_38_Right_38
*980 PHY_EDGE_ROW_39_Left_84
*981 PHY_EDGE_ROW_39_Right_39
*982 PHY_EDGE_ROW_3_Left_48
*983 PHY_EDGE_ROW_3_Right_3
*984 PHY_EDGE_ROW_40_Left_85
*985 PHY_EDGE_ROW_40_Right_40
*986 PHY_EDGE_ROW_41_Left_86
*987 PHY_EDGE_ROW_41_Right_41
*988 PHY_EDGE_ROW_42_Left_87
*989 PHY_EDGE_ROW_42_Right_42
*990 PHY_EDGE_ROW_43_Left_88
*991 PHY_EDGE_ROW_43_Right_43
*992 PHY_EDGE_ROW_44_Left_89
*993 PHY_EDGE_ROW_44_Right_44
*994 PHY_EDGE_ROW_4_Left_49
*995 PHY_EDGE_ROW_4_Right_4
*996 PHY_EDGE_ROW_5_Left_50
*997 PHY_EDGE_ROW_5_Right_5
*998 PHY_EDGE_ROW_6_Left_51
*999 PHY_EDGE_ROW_6_Right_6
*1000 PHY_EDGE_ROW_7_Left_52
*1001 PHY_EDGE_ROW_7_Right_7
*1002 PHY_EDGE_ROW_8_Left_53
*1003 PHY_EDGE_ROW_8_Right_8
*1004 PHY_EDGE_ROW_9_Left_54
*1005 PHY_EDGE_ROW_9_Right_9
*1006 TAP_TAPCELL_ROW_0_90
*1007 TAP_TAPCELL_ROW_0_91
*1008 TAP_TAPCELL_ROW_0_92
*1009 TAP_TAPCELL_ROW_0_93
*1010 TAP_TAPCELL_ROW_0_94
*1011 TAP_TAPCELL_ROW_0_95
*1012 TAP_TAPCELL_ROW_0_96
*1013 TAP_TAPCELL_ROW_0_97
*1014 TAP_TAPCELL_ROW_0_98
*1015 TAP_TAPCELL_ROW_0_99
*1016 TAP_TAPCELL_ROW_10_140
*1017 TAP_TAPCELL_ROW_10_141
*1018 TAP_TAPCELL_ROW_10_142
*1019 TAP_TAPCELL_ROW_10_143
*1020 TAP_TAPCELL_ROW_10_144
*1021 TAP_TAPCELL_ROW_11_145
*1022 TAP_TAPCELL_ROW_11_146
*1023 TAP_TAPCELL_ROW_11_147
*1024 TAP_TAPCELL_ROW_11_148
*1025 TAP_TAPCELL_ROW_12_149
*1026 TAP_TAPCELL_ROW_12_150
*1027 TAP_TAPCELL_ROW_12_151
*1028 TAP_TAPCELL_ROW_12_152
*1029 TAP_TAPCELL_ROW_12_153
*1030 TAP_TAPCELL_ROW_13_154
*1031 TAP_TAPCELL_ROW_13_155
*1032 TAP_TAPCELL_ROW_13_156
*1033 TAP_TAPCELL_ROW_13_157
*1034 TAP_TAPCELL_ROW_14_158
*1035 TAP_TAPCELL_ROW_14_159
*1036 TAP_TAPCELL_ROW_14_160
*1037 TAP_TAPCELL_ROW_14_161
*1038 TAP_TAPCELL_ROW_14_162
*1039 TAP_TAPCELL_ROW_15_163
*1040 TAP_TAPCELL_ROW_15_164
*1041 TAP_TAPCELL_ROW_15_165
*1042 TAP_TAPCELL_ROW_15_166
*1043 TAP_TAPCELL_ROW_16_167
*1044 TAP_TAPCELL_ROW_16_168
*1045 TAP_TAPCELL_ROW_16_169
*1046 TAP_TAPCELL_ROW_16_170
*1047 TAP_TAPCELL_ROW_16_171
*1048 TAP_TAPCELL_ROW_17_172
*1049 TAP_TAPCELL_ROW_17_173
*1050 TAP_TAPCELL_ROW_17_174
*1051 TAP_TAPCELL_ROW_17_175
*1052 TAP_TAPCELL_ROW_18_176
*1053 TAP_TAPCELL_ROW_18_177
*1054 TAP_TAPCELL_ROW_18_178
*1055 TAP_TAPCELL_ROW_18_179
*1056 TAP_TAPCELL_ROW_18_180
*1057 TAP_TAPCELL_ROW_19_181
*1058 TAP_TAPCELL_ROW_19_182
*1059 TAP_TAPCELL_ROW_19_183
*1060 TAP_TAPCELL_ROW_19_184
*1061 TAP_TAPCELL_ROW_1_100
*1062 TAP_TAPCELL_ROW_1_101
*1063 TAP_TAPCELL_ROW_1_102
*1064 TAP_TAPCELL_ROW_1_103
*1065 TAP_TAPCELL_ROW_20_185
*1066 TAP_TAPCELL_ROW_20_186
*1067 TAP_TAPCELL_ROW_20_187
*1068 TAP_TAPCELL_ROW_20_188
*1069 TAP_TAPCELL_ROW_20_189
*1070 TAP_TAPCELL_ROW_21_190
*1071 TAP_TAPCELL_ROW_21_191
*1072 TAP_TAPCELL_ROW_21_192
*1073 TAP_TAPCELL_ROW_21_193
*1074 TAP_TAPCELL_ROW_22_194
*1075 TAP_TAPCELL_ROW_22_195
*1076 TAP_TAPCELL_ROW_22_196
*1077 TAP_TAPCELL_ROW_22_197
*1078 TAP_TAPCELL_ROW_22_198
*1079 TAP_TAPCELL_ROW_23_199
*1080 TAP_TAPCELL_ROW_23_200
*1081 TAP_TAPCELL_ROW_23_201
*1082 TAP_TAPCELL_ROW_23_202
*1083 TAP_TAPCELL_ROW_24_203
*1084 TAP_TAPCELL_ROW_24_204
*1085 TAP_TAPCELL_ROW_24_205
*1086 TAP_TAPCELL_ROW_24_206
*1087 TAP_TAPCELL_ROW_24_207
*1088 TAP_TAPCELL_ROW_25_208
*1089 TAP_TAPCELL_ROW_25_209
*1090 TAP_TAPCELL_ROW_25_210
*1091 TAP_TAPCELL_ROW_25_211
*1092 TAP_TAPCELL_ROW_26_212
*1093 TAP_TAPCELL_ROW_26_213
*1094 TAP_TAPCELL_ROW_26_214
*1095 TAP_TAPCELL_ROW_26_215
*1096 TAP_TAPCELL_ROW_26_216
*1097 TAP_TAPCELL_ROW_27_217
*1098 TAP_TAPCELL_ROW_27_218
*1099 TAP_TAPCELL_ROW_27_219
*1100 TAP_TAPCELL_ROW_27_220
*1101 TAP_TAPCELL_ROW_28_221
*1102 TAP_TAPCELL_ROW_28_222
*1103 TAP_TAPCELL_ROW_28_223
*1104 TAP_TAPCELL_ROW_28_224
*1105 TAP_TAPCELL_ROW_28_225
*1106 TAP_TAPCELL_ROW_29_226
*1107 TAP_TAPCELL_ROW_29_227
*1108 TAP_TAPCELL_ROW_29_228
*1109 TAP_TAPCELL_ROW_29_229
*1110 TAP_TAPCELL_ROW_2_104
*1111 TAP_TAPCELL_ROW_2_105
*1112 TAP_TAPCELL_ROW_2_106
*1113 TAP_TAPCELL_ROW_2_107
*1114 TAP_TAPCELL_ROW_2_108
*1115 TAP_TAPCELL_ROW_30_230
*1116 TAP_TAPCELL_ROW_30_231
*1117 TAP_TAPCELL_ROW_30_232
*1118 TAP_TAPCELL_ROW_30_233
*1119 TAP_TAPCELL_ROW_30_234
*1120 TAP_TAPCELL_ROW_31_235
*1121 TAP_TAPCELL_ROW_31_236
*1122 TAP_TAPCELL_ROW_31_237
*1123 TAP_TAPCELL_ROW_31_238
*1124 TAP_TAPCELL_ROW_32_239
*1125 TAP_TAPCELL_ROW_32_240
*1126 TAP_TAPCELL_ROW_32_241
*1127 TAP_TAPCELL_ROW_32_242
*1128 TAP_TAPCELL_ROW_32_243
*1129 TAP_TAPCELL_ROW_33_244
*1130 TAP_TAPCELL_ROW_33_245
*1131 TAP_TAPCELL_ROW_33_246
*1132 TAP_TAPCELL_ROW_33_247
*1133 TAP_TAPCELL_ROW_34_248
*1134 TAP_TAPCELL_ROW_34_249
*1135 TAP_TAPCELL_ROW_34_250
*1136 TAP_TAPCELL_ROW_34_251
*1137 TAP_TAPCELL_ROW_34_252
*1138 TAP_TAPCELL_ROW_35_253
*1139 TAP_TAPCELL_ROW_35_254
*1140 TAP_TAPCELL_ROW_35_255
*1141 TAP_TAPCELL_ROW_35_256
*1142 TAP_TAPCELL_ROW_36_257
*1143 TAP_TAPCELL_ROW_36_258
*1144 TAP_TAPCELL_ROW_36_259
*1145 TAP_TAPCELL_ROW_36_260
*1146 TAP_TAPCELL_ROW_36_261
*1147 TAP_TAPCELL_ROW_37_262
*1148 TAP_TAPCELL_ROW_37_263
*1149 TAP_TAPCELL_ROW_37_264
*1150 TAP_TAPCELL_ROW_37_265
*1151 TAP_TAPCELL_ROW_38_266
*1152 TAP_TAPCELL_ROW_38_267
*1153 TAP_TAPCELL_ROW_38_268
*1154 TAP_TAPCELL_ROW_38_269
*1155 TAP_TAPCELL_ROW_38_270
*1156 TAP_TAPCELL_ROW_39_271
*1157 TAP_TAPCELL_ROW_39_272
*1158 TAP_TAPCELL_ROW_39_273
*1159 TAP_TAPCELL_ROW_39_274
*1160 TAP_TAPCELL_ROW_3_109
*1161 TAP_TAPCELL_ROW_3_110
*1162 TAP_TAPCELL_ROW_3_111
*1163 TAP_TAPCELL_ROW_3_112
*1164 TAP_TAPCELL_ROW_40_275
*1165 TAP_TAPCELL_ROW_40_276
*1166 TAP_TAPCELL_ROW_40_277
*1167 TAP_TAPCELL_ROW_40_278
*1168 TAP_TAPCELL_ROW_40_279
*1169 TAP_TAPCELL_ROW_41_280
*1170 TAP_TAPCELL_ROW_41_281
*1171 TAP_TAPCELL_ROW_41_282
*1172 TAP_TAPCELL_ROW_41_283
*1173 TAP_TAPCELL_ROW_42_284
*1174 TAP_TAPCELL_ROW_42_285
*1175 TAP_TAPCELL_ROW_42_286
*1176 TAP_TAPCELL_ROW_42_287
*1177 TAP_TAPCELL_ROW_42_288
*1178 TAP_TAPCELL_ROW_43_289
*1179 TAP_TAPCELL_ROW_43_290
*1180 TAP_TAPCELL_ROW_43_291
*1181 TAP_TAPCELL_ROW_43_292
*1182 TAP_TAPCELL_ROW_44_293
*1183 TAP_TAPCELL_ROW_44_294
*1184 TAP_TAPCELL_ROW_44_295
*1185 TAP_TAPCELL_ROW_44_296
*1186 TAP_TAPCELL_ROW_44_297
*1187 TAP_TAPCELL_ROW_44_298
*1188 TAP_TAPCELL_ROW_44_299
*1189 TAP_TAPCELL_ROW_44_300
*1190 TAP_TAPCELL_ROW_44_301
*1191 TAP_TAPCELL_ROW_44_302
*1192 TAP_TAPCELL_ROW_4_113
*1193 TAP_TAPCELL_ROW_4_114
*1194 TAP_TAPCELL_ROW_4_115
*1195 TAP_TAPCELL_ROW_4_116
*1196 TAP_TAPCELL_ROW_4_117
*1197 TAP_TAPCELL_ROW_5_118
*1198 TAP_TAPCELL_ROW_5_119
*1199 TAP_TAPCELL_ROW_5_120
*1200 TAP_TAPCELL_ROW_5_121
*1201 TAP_TAPCELL_ROW_6_122
*1202 TAP_TAPCELL_ROW_6_123
*1203 TAP_TAPCELL_ROW_6_124
*1204 TAP_TAPCELL_ROW_6_125
*1205 TAP_TAPCELL_ROW_6_126
*1206 TAP_TAPCELL_ROW_7_127
*1207 TAP_TAPCELL_ROW_7_128
*1208 TAP_TAPCELL_ROW_7_129
*1209 TAP_TAPCELL_ROW_7_130
*1210 TAP_TAPCELL_ROW_8_131
*1211 TAP_TAPCELL_ROW_8_132
*1212 TAP_TAPCELL_ROW_8_133
*1213 TAP_TAPCELL_ROW_8_134
*1214 TAP_TAPCELL_ROW_8_135
*1215 TAP_TAPCELL_ROW_9_136
*1216 TAP_TAPCELL_ROW_9_137
*1217 TAP_TAPCELL_ROW_9_138
*1218 TAP_TAPCELL_ROW_9_139
*1219 _115_
*1220 _116_
*1221 _117_
*1222 _118_
*1223 _119_
*1224 _120_
*1225 _121_
*1226 _122_
*1227 _123_
*1228 _124_
*1229 _125_
*1230 _126_
*1231 _127_
*1232 _128_
*1233 _129_
*1234 _130_
*1235 _131_
*1236 _132_
*1237 _133_
*1238 _134_
*1239 _135_
*1240 _136_
*1241 _137_
*1242 _138_
*1243 _139_
*1244 _140_
*1245 _141_
*1246 _142_
*1247 _143_
*1248 _144_
*1249 _145_
*1250 _146_
*1251 _147_
*1252 _148_
*1253 _149_
*1254 _150_
*1255 _151_
*1256 _152_
*1257 _153_
*1258 _154_
*1259 _155_
*1260 _156_
*1261 _157_
*1262 _158_
*1263 _159_
*1264 _160_
*1265 _161_
*1266 _162_
*1267 _163_
*1268 _164_
*1269 _165_
*1270 _166_
*1271 _167_
*1272 _168_
*1273 _169_
*1274 _170_
*1275 _171_
*1276 _172_
*1277 _173_
*1278 _174_
*1279 _175_
*1280 _176_
*1281 _177_
*1282 _178_
*1283 _179_
*1284 _180_
*1285 _181_
*1286 _182_
*1287 _183_
*1288 _184_
*1289 _185_
*1290 _186_
*1291 _187_
*1292 _188_
*1293 _189_
*1294 _190_
*1295 _191_
*1296 _192_
*1297 _193_
*1298 _194_
*1299 _195_
*1300 _196_
*1301 _197_
*1302 _198_
*1303 _199_
*1304 _200_
*1305 _201_
*1306 _202_
*1307 _203_
*1308 _204_
*1309 _205_
*1310 _206_
*1311 _207_
*1312 _208_
*1313 _209_
*1314 _210_
*1315 _211_
*1316 _212_
*1317 _213_
*1318 _214_
*1319 _215_
*1320 _216_
*1321 _217_
*1322 _218_
*1323 _219_
*1324 _220_
*1325 _221_
*1326 _222_
*1327 _223_
*1328 _224_
*1329 _225_
*1330 _226_
*1331 _227_
*1332 _228_
*1333 _229_
*1334 _230_
*1335 _231_
*1336 _232_
*1337 _233_
*1338 _234_
*1339 _235_
*1340 _236_
*1341 _237_
*1342 _238_
*1343 _239_
*1344 _240_
*1345 _241_
*1346 _242_
*1347 _243_
*1348 _244_
*1349 _245_
*1350 _246_
*1351 _247_
*1352 _248_
*1353 _249_
*1354 _250_
*1355 _251_
*1356 _252_
*1357 _253_
*1358 _254_
*1359 _255_
*1360 _256_
*1361 _257_
*1362 _258_
*1363 _259_
*1364 clkbuf_0_clk
*1365 clkbuf_1_0__f_clk
*1366 clkbuf_1_1__f_clk
*1367 output1
*1368 output10
*1369 output11
*1370 output12
*1371 output13
*1372 output14
*1373 output15
*1374 output16
*1375 output17
*1376 output18
*1377 output19
*1378 output2
*1379 output20
*1380 output21
*1381 output22
*1382 output23
*1383 output24
*1384 output25
*1385 output26
*1386 output3
*1387 output4
*1388 output5
*1389 output6
*1390 output7
*1391 output8
*1392 output9

*PORTS
clk I
segm[0] O
segm[10] O
segm[11] O
segm[12] O
segm[13] O
segm[1] O
segm[2] O
segm[3] O
segm[4] O
segm[5] O
segm[6] O
segm[7] O
segm[8] O
segm[9] O
sel[0] O
sel[10] O
sel[11] O
sel[1] O
sel[2] O
sel[3] O
sel[4] O
sel[5] O
sel[6] O
sel[7] O
sel[8] O
sel[9] O

*D_NET *1 0.0140108
*CONN
*P clk I
*I *1364:I I *D gf180mcu_fd_sc_mcu7t5v0__clkbuf_16
*I *205:I I *D gf180mcu_fd_sc_mcu7t5v0__antenna
*CAP
1 clk 0.00475052
2 *1364:I 0.000156916
3 *205:I 0
4 *1:17 0.000196203
5 *1:15 0.0047898
6 *1364:I *124:20 6.53193e-05
7 *1364:I *129:8 0.000317425
8 *1:15 segm[10] 6.4464e-05
9 *1:15 *1225:I 0.000120237
10 *1:15 *1311:B2 4.59239e-05
11 *1:15 *1338:D 0.000452069
12 *1:15 *1375:I 0.000509981
13 *1:15 *46:23 0.000207267
14 *1:15 *105:35 0
15 *1:15 *106:16 0
16 *1:15 *109:8 0.00102072
17 *1:15 *109:21 0.00081727
18 *1:15 *114:10 0
19 *1:15 *130:20 0.000194471
20 *1:15 *149:19 5.27305e-05
21 *1:17 *1227:I 2.96621e-05
22 *1:17 *124:20 2.22657e-05
23 *1:17 *125:8 5.09739e-06
24 *1:17 *129:8 0.000192419
*RES
1 clk *1:15 49.562 
2 *1:15 *1:17 0.532 
3 *1:17 *205:I 4.5 
4 *1:17 *1364:I 5.868 
*END

*D_NET *2 0.000697711
*CONN
*P segm[0] O
*I *1367:Z O *D gf180mcu_fd_sc_mcu7t5v0__buf_8
*CAP
1 segm[0] 0.000286707
2 *1367:Z 0.000286707
3 segm[0] sel[10] 5.73926e-05
4 segm[0] sel[7] 6.69047e-05
*RES
1 *1367:Z segm[0] 11.318 
*END

*D_NET *3 0.000957421
*CONN
*P segm[10] O
*I *1378:Z O *D gf180mcu_fd_sc_mcu7t5v0__buf_8
*CAP
1 segm[10] 0.000446479
2 *1378:Z 0.000446479
3 *1:15 segm[10] 6.4464e-05
*RES
1 *1378:Z segm[10] 12.002 
*END

*D_NET *4 0.00173118
*CONN
*P segm[11] O