*SPEF "ieee 1481-1999"
*DESIGN "ita50"
*DATE "11:11:11 Fri 11 11, 1111"
*VENDOR "OpenRCX"
*PROGRAM "Parallel Extraction"
*VERSION "1.0"
*DESIGN_FLOW "NAME_SCOPE LOCAL" "PIN_CAP NONE"
*DIVIDER /
*DELIMITER :
*BUS_DELIMITER []
*T_UNIT 1 NS
*C_UNIT 1 PF
*R_UNIT 1 OHM
*L_UNIT 1 HENRY

*NAME_MAP
*1 clk
*2 net24
*3 segm[10]
*4 segm[11]
*5 segm[12]
*6 segm[13]
*7 net25
*8 segm[2]
*9 segm[3]
*10 net26
*11 segm[5]
*12 segm[6]
*13 segm[7]
*14 segm[8]
*15 segm[9]
*16 sel[0]
*17 sel[10]
*18 sel[11]
*19 sel[1]
*20 sel[2]
*21 sel[3]
*22 sel[4]
*23 sel[5]
*24 sel[6]
*25 sel[7]
*26 sel[8]
*27 sel[9]
*30 _000_
*31 _001_
*32 _002_
*33 _003_
*34 _004_
*35 _005_
*36 _006_
*37 _007_
*38 _008_
*39 _009_
*40 _010_
*41 _011_
*42 _012_
*43 _013_
*44 _014_
*45 _015_
*46 _016_
*47 _017_
*48 _018_
*49 _019_
*50 _020_
*51 _021_
*52 _022_
*53 _023_
*54 _024_
*55 _025_
*56 _026_
*57 _027_
*58 _028_
*59 _029_
*60 _030_
*61 _031_
*62 _032_
*63 _033_
*64 _034_
*65 _035_
*66 _036_
*67 _037_
*68 _038_
*69 _039_
*70 _040_
*71 _041_
*72 _042_
*73 _043_
*74 _044_
*75 _045_
*76 _046_
*77 _047_
*78 _048_
*79 _049_
*80 _050_
*81 _051_
*82 _052_
*83 _053_
*84 _054_
*85 _055_
*86 _056_
*87 _057_
*88 _058_
*89 _059_
*90 _060_
*91 _061_
*92 _062_
*93 _063_
*94 _064_
*95 _065_
*96 _066_
*97 _067_
*98 _068_
*99 _069_
*100 _070_
*101 _071_
*102 _072_
*103 _073_
*104 _074_
*105 _075_
*106 _076_
*107 _077_
*108 _078_
*109 _079_
*110 _080_
*111 _081_
*112 _082_
*113 _083_
*114 _084_
*115 _085_
*116 _086_
*117 _087_
*118 _088_
*119 _089_
*120 _090_
*121 _091_
*122 _092_
*123 _093_
*124 _094_
*125 _095_
*126 _096_
*127 _097_
*128 _098_
*129 _099_
*130 _100_
*131 _101_
*132 _102_
*133 _103_
*134 _104_
*135 _105_
*136 _106_
*137 _107_
*138 _108_
*139 _109_
*140 _110_
*141 _111_
*142 _112_
*143 clknet_0_clk
*144 clknet_1_0__leaf_clk
*145 clknet_1_1__leaf_clk
*146 dut50\.count\[0\]
*147 dut50\.count\[1\]
*148 dut50\.count\[2\]
*149 dut50\.count\[3\]
*150 net1
*151 net10
*152 net11
*153 net12
*154 net13
*155 net14
*156 net15
*157 net16
*158 net17
*159 net18
*160 net19
*161 net2
*162 net20
*163 net21
*164 net22
*165 net23
*166 net3
*167 net4
*168 net5
*169 net6
*170 net7
*171 net8
*172 net9
*173 ANTENNA__160__B2
*174 ANTENNA__226__CLK
*175 ANTENNA__227__CLK
*176 ANTENNA__228__CLK
*177 ANTENNA__229__CLK
*178 ANTENNA__230__CLK
*179 ANTENNA__231__CLK
*180 ANTENNA__232__CLK
*181 ANTENNA__233__CLK
*182 ANTENNA__234__CLK
*183 ANTENNA__235__CLK
*184 ANTENNA__236__CLK
*185 ANTENNA__237__CLK
*186 ANTENNA__238__CLK
*187 ANTENNA__239__CLK
*188 ANTENNA__240__CLK
*189 ANTENNA__241__CLK
*190 ANTENNA__242__CLK
*191 ANTENNA__243__CLK
*192 ANTENNA__244__CLK
*193 ANTENNA__245__CLK
*194 ANTENNA__246__CLK
*195 ANTENNA__247__CLK
*196 ANTENNA__248__CLK
*197 ANTENNA__249__CLK
*198 ANTENNA__250__CLK
*199 ANTENNA__251__CLK
*200 ANTENNA_clkbuf_0_clk_I
*201 ANTENNA_output23_I
*202 FILLER_0_0_104
*203 FILLER_0_0_138
*204 FILLER_0_0_172
*205 FILLER_0_0_176
*206 FILLER_0_0_2
*207 FILLER_0_0_206
*208 FILLER_0_0_240
*209 FILLER_0_0_274
*210 FILLER_0_0_308
*211 FILLER_0_0_342
*212 FILLER_0_0_346
*213 FILLER_0_0_348
*214 FILLER_0_0_36
*215 FILLER_0_0_70
*216 FILLER_0_10_101
*217 FILLER_0_10_107
*218 FILLER_0_10_171
*219 FILLER_0_10_177
*220 FILLER_0_10_2
*221 FILLER_0_10_241
*222 FILLER_0_10_247
*223 FILLER_0_10_311
*224 FILLER_0_10_317
*225 FILLER_0_10_34
*226 FILLER_0_10_37
*227 FILLER_0_11_136
*228 FILLER_0_11_142
*229 FILLER_0_11_2
*230 FILLER_0_11_206
*231 FILLER_0_11_212
*232 FILLER_0_11_276
*233 FILLER_0_11_282
*234 FILLER_0_11_346
*235 FILLER_0_11_348
*236 FILLER_0_11_66
*237 FILLER_0_11_72
*238 FILLER_0_12_101
*239 FILLER_0_12_107
*240 FILLER_0_12_171
*241 FILLER_0_12_177
*242 FILLER_0_12_193
*243 FILLER_0_12_2
*244 FILLER_0_12_230
*245 FILLER_0_12_234
*246 FILLER_0_12_242
*247 FILLER_0_12_244
*248 FILLER_0_12_247
*249 FILLER_0_12_311
*250 FILLER_0_12_317
*251 FILLER_0_12_34
*252 FILLER_0_12_37
*253 FILLER_0_13_136
*254 FILLER_0_13_142
*255 FILLER_0_13_154
*256 FILLER_0_13_197
*257 FILLER_0_13_2
*258 FILLER_0_13_201
*259 FILLER_0_13_209
*260 FILLER_0_13_241
*261 FILLER_0_13_245
*262 FILLER_0_13_277
*263 FILLER_0_13_279
*264 FILLER_0_13_282
*265 FILLER_0_13_346
*266 FILLER_0_13_348
*267 FILLER_0_13_66
*268 FILLER_0_13_72
*269 FILLER_0_14_101
*270 FILLER_0_14_107
*271 FILLER_0_14_123
*272 FILLER_0_14_127
*273 FILLER_0_14_158
*274 FILLER_0_14_162
*275 FILLER_0_14_170
*276 FILLER_0_14_174
*277 FILLER_0_14_182
*278 FILLER_0_14_186
*279 FILLER_0_14_2
*280 FILLER_0_14_202
*281 FILLER_0_14_210
*282 FILLER_0_14_235
*283 FILLER_0_14_243
*284 FILLER_0_14_247
*285 FILLER_0_14_311
*286 FILLER_0_14_317
*287 FILLER_0_14_34
*288 FILLER_0_14_37
*289 FILLER_0_15_136
*290 FILLER_0_15_148
*291 FILLER_0_15_152
*292 FILLER_0_15_195
*293 FILLER_0_15_2
*294 FILLER_0_15_203
*295 FILLER_0_15_207
*296 FILLER_0_15_209
*297 FILLER_0_15_216
*298 FILLER_0_15_225
*299 FILLER_0_15_257
*300 FILLER_0_15_273
*301 FILLER_0_15_277
*302 FILLER_0_15_279
*303 FILLER_0_15_282
*304 FILLER_0_15_346
*305 FILLER_0_15_348
*306 FILLER_0_15_66
*307 FILLER_0_15_72
*308 FILLER_0_16_101
*309 FILLER_0_16_111
*310 FILLER_0_16_119
*311 FILLER_0_16_121
*312 FILLER_0_16_151
*313 FILLER_0_16_155
*314 FILLER_0_16_163
*315 FILLER_0_16_187
*316 FILLER_0_16_195
*317 FILLER_0_16_199
*318 FILLER_0_16_2
*319 FILLER_0_16_210
*320 FILLER_0_16_214
*321 FILLER_0_16_231
*322 FILLER_0_16_239
*323 FILLER_0_16_243
*324 FILLER_0_16_247
*325 FILLER_0_16_311
*326 FILLER_0_16_317
*327 FILLER_0_16_34
*328 FILLER_0_16_37
*329 FILLER_0_17_117
*330 FILLER_0_17_121
*331 FILLER_0_17_137
*332 FILLER_0_17_139
*333 FILLER_0_17_142
*334 FILLER_0_17_150
*335 FILLER_0_17_152
*336 FILLER_0_17_163
*337 FILLER_0_17_171
*338 FILLER_0_17_173
*339 FILLER_0_17_189
*340 FILLER_0_17_197
*341 FILLER_0_17_2
*342 FILLER_0_17_201
*343 FILLER_0_17_203
*344 FILLER_0_17_241
*345 FILLER_0_17_245
*346 FILLER_0_17_277
*347 FILLER_0_17_279
*348 FILLER_0_17_282
*349 FILLER_0_17_346
*350 FILLER_0_17_348
*351 FILLER_0_17_66
*352 FILLER_0_17_72
*353 FILLER_0_18_101
*354 FILLER_0_18_107
*355 FILLER_0_18_123
*356 FILLER_0_18_127
*357 FILLER_0_18_129
*358 FILLER_0_18_142
*359 FILLER_0_18_174
*360 FILLER_0_18_187
*361 FILLER_0_18_193
*362 FILLER_0_18_197
*363 FILLER_0_18_199
*364 FILLER_0_18_208
*365 FILLER_0_18_232
*366 FILLER_0_18_240
*367 FILLER_0_18_244
*368 FILLER_0_18_247
*369 FILLER_0_18_251
*370 FILLER_0_18_256
*371 FILLER_0_18_28
*372 FILLER_0_18_288
*373 FILLER_0_18_304
*374 FILLER_0_18_312
*375 FILLER_0_18_314
*376 FILLER_0_18_317
*377 FILLER_0_18_32
*378 FILLER_0_18_321
*379 FILLER_0_18_34
*380 FILLER_0_18_37
*381 FILLER_0_19_104
*382 FILLER_0_19_112
*383 FILLER_0_19_123
*384 FILLER_0_19_130
*385 FILLER_0_19_138
*386 FILLER_0_19_142
*387 FILLER_0_19_164
*388 FILLER_0_19_166
*389 FILLER_0_19_175
*390 FILLER_0_19_179
*391 FILLER_0_19_181
*392 FILLER_0_19_187
*393 FILLER_0_19_195
*394 FILLER_0_19_2
*395 FILLER_0_19_202
*396 FILLER_0_19_225
*397 FILLER_0_19_265
*398 FILLER_0_19_269
*399 FILLER_0_19_277
*400 FILLER_0_19_279
*401 FILLER_0_19_282
*402 FILLER_0_19_314
*403 FILLER_0_19_322
*404 FILLER_0_19_66
*405 FILLER_0_19_72
*406 FILLER_0_1_136
*407 FILLER_0_1_142
*408 FILLER_0_1_150
*409 FILLER_0_1_154
*410 FILLER_0_1_2
*411 FILLER_0_1_207
*412 FILLER_0_1_209
*413 FILLER_0_1_212
*414 FILLER_0_1_276
*415 FILLER_0_1_282
*416 FILLER_0_1_346
*417 FILLER_0_1_348
*418 FILLER_0_1_66
*419 FILLER_0_1_72
*420 FILLER_0_20_101
*421 FILLER_0_20_113
*422 FILLER_0_20_117
*423 FILLER_0_20_121
*424 FILLER_0_20_146
*425 FILLER_0_20_172
*426 FILLER_0_20_174
*427 FILLER_0_20_183
*428 FILLER_0_20_192
*429 FILLER_0_20_196
*430 FILLER_0_20_2
*431 FILLER_0_20_234
*432 FILLER_0_20_242
*433 FILLER_0_20_244
*434 FILLER_0_20_276
*435 FILLER_0_20_308
*436 FILLER_0_20_312
*437 FILLER_0_20_314
*438 FILLER_0_20_317
*439 FILLER_0_20_34
*440 FILLER_0_20_37
*441 FILLER_0_21_139
*442 FILLER_0_21_142
*443 FILLER_0_21_147
*444 FILLER_0_21_151
*445 FILLER_0_21_155
*446 FILLER_0_21_162
*447 FILLER_0_21_166
*448 FILLER_0_21_175
*449 FILLER_0_21_190
*450 FILLER_0_21_194
*451 FILLER_0_21_2
*452 FILLER_0_21_209
*453 FILLER_0_21_266
*454 FILLER_0_21_274
*455 FILLER_0_21_278
*456 FILLER_0_21_282
*457 FILLER_0_21_346
*458 FILLER_0_21_348
*459 FILLER_0_21_66
*460 FILLER_0_21_72
*461 FILLER_0_21_80
*462 FILLER_0_22_101
*463 FILLER_0_22_113
*464 FILLER_0_22_121
*465 FILLER_0_22_131
*466 FILLER_0_22_135
*467 FILLER_0_22_143
*468 FILLER_0_22_150
*469 FILLER_0_22_158
*470 FILLER_0_22_160
*471 FILLER_0_22_237
*472 FILLER_0_22_247
*473 FILLER_0_22_28
*474 FILLER_0_22_311
*475 FILLER_0_22_317
*476 FILLER_0_22_32
*477 FILLER_0_22_321
*478 FILLER_0_22_34
*479 FILLER_0_22_37
*480 FILLER_0_23_119
*481 FILLER_0_23_129
*482 FILLER_0_23_137
*483 FILLER_0_23_139
*484 FILLER_0_23_142
*485 FILLER_0_23_144
*486 FILLER_0_23_2
*487 FILLER_0_23_203
*488 FILLER_0_23_207
*489 FILLER_0_23_209
*490 FILLER_0_23_212
*491 FILLER_0_23_214
*492 FILLER_0_23_235
*493 FILLER_0_23_266
*494 FILLER_0_23_270
*495 FILLER_0_23_278
*496 FILLER_0_23_282
*497 FILLER_0_23_346
*498 FILLER_0_23_348
*499 FILLER_0_23_66
*500 FILLER_0_23_72
*501 FILLER_0_23_88
*502 FILLER_0_24_101
*503 FILLER_0_24_113
*504 FILLER_0_24_117
*505 FILLER_0_24_127
*506 FILLER_0_24_160
*507 FILLER_0_24_164
*508 FILLER_0_24_166
*509 FILLER_0_24_173
*510 FILLER_0_24_177
*511 FILLER_0_24_189
*512 FILLER_0_24_198
*513 FILLER_0_24_200
*514 FILLER_0_24_207
*515 FILLER_0_24_211
*516 FILLER_0_24_219
*517 FILLER_0_24_225
*518 FILLER_0_24_236
*519 FILLER_0_24_244
*520 FILLER_0_24_247
*521 FILLER_0_24_28
*522 FILLER_0_24_311
*523 FILLER_0_24_317
*524 FILLER_0_24_32
*525 FILLER_0_24_321
*526 FILLER_0_24_34
*527 FILLER_0_24_37
*528 FILLER_0_25_129
*529 FILLER_0_25_133
*530 FILLER_0_25_137
*531 FILLER_0_25_139
*532 FILLER_0_25_158
*533 FILLER_0_25_162
*534 FILLER_0_25_201
*535 FILLER_0_25_205
*536 FILLER_0_25_209
*537 FILLER_0_25_212
*538 FILLER_0_25_214
*539 FILLER_0_25_225
*540 FILLER_0_25_257
*541 FILLER_0_25_273
*542 FILLER_0_25_277
*543 FILLER_0_25_279
*544 FILLER_0_25_28
*545 FILLER_0_25_282
*546 FILLER_0_25_346
*547 FILLER_0_25_348
*548 FILLER_0_25_60
*549 FILLER_0_25_68
*550 FILLER_0_25_72
*551 FILLER_0_25_88
*552 FILLER_0_25_90
*553 FILLER_0_26_101
*554 FILLER_0_26_113
*555 FILLER_0_26_126
*556 FILLER_0_26_142
*557 FILLER_0_26_146
*558 FILLER_0_26_154
*559 FILLER_0_26_170
*560 FILLER_0_26_174
*561 FILLER_0_26_177
*562 FILLER_0_26_198
*563 FILLER_0_26_2
*564 FILLER_0_26_206
*565 FILLER_0_26_212
*566 FILLER_0_26_216
*567 FILLER_0_26_229
*568 FILLER_0_26_233
*569 FILLER_0_26_244
*570 FILLER_0_26_252
*571 FILLER_0_26_284
*572 FILLER_0_26_300
*573 FILLER_0_26_308
*574 FILLER_0_26_312
*575 FILLER_0_26_314
*576 FILLER_0_26_317
*577 FILLER_0_26_321
*578 FILLER_0_26_34
*579 FILLER_0_26_37
*580 FILLER_0_27_125
*581 FILLER_0_27_129
*582 FILLER_0_27_137
*583 FILLER_0_27_139
*584 FILLER_0_27_153
*585 FILLER_0_27_169
*586 FILLER_0_27_177
*587 FILLER_0_27_195
*588 FILLER_0_27_2
*589 FILLER_0_27_203
*590 FILLER_0_27_207
*591 FILLER_0_27_209
*592 FILLER_0_27_270
*593 FILLER_0_27_274
*594 FILLER_0_27_278
*595 FILLER_0_27_282
*596 FILLER_0_27_346
*597 FILLER_0_27_348
*598 FILLER_0_27_66
*599 FILLER_0_27_72
*600 FILLER_0_27_88
*601 FILLER_0_28_101
*602 FILLER_0_28_107
*603 FILLER_0_28_115
*604 FILLER_0_28_119
*605 FILLER_0_28_128
*606 FILLER_0_28_136
*607 FILLER_0_28_143
*608 FILLER_0_28_181
*609 FILLER_0_28_185
*610 FILLER_0_28_189
*611 FILLER_0_28_2
*612 FILLER_0_28_205
*613 FILLER_0_28_213
*614 FILLER_0_28_215
*615 FILLER_0_28_225
*616 FILLER_0_28_233
*617 FILLER_0_28_235
*618 FILLER_0_28_243
*619 FILLER_0_28_252
*620 FILLER_0_28_284
*621 FILLER_0_28_300
*622 FILLER_0_28_308
*623 FILLER_0_28_312
*624 FILLER_0_28_314
*625 FILLER_0_28_317
*626 FILLER_0_28_321
*627 FILLER_0_28_34
*628 FILLER_0_28_37
*629 FILLER_0_29_104
*630 FILLER_0_29_108
*631 FILLER_0_29_110
*632 FILLER_0_29_149
*633 FILLER_0_29_153
*634 FILLER_0_29_157
*635 FILLER_0_29_187
*636 FILLER_0_29_199
*637 FILLER_0_29_207
*638 FILLER_0_29_209
*639 FILLER_0_29_212
*640 FILLER_0_29_220
*641 FILLER_0_29_227
*642 FILLER_0_29_264
*643 FILLER_0_29_268
*644 FILLER_0_29_276
*645 FILLER_0_29_28
*646 FILLER_0_29_282
*647 FILLER_0_29_314
*648 FILLER_0_29_322
*649 FILLER_0_29_60
*650 FILLER_0_29_68
*651 FILLER_0_29_72
*652 FILLER_0_2_101
*653 FILLER_0_2_107
*654 FILLER_0_2_171
*655 FILLER_0_2_203
*656 FILLER_0_2_22
*657 FILLER_0_2_235
*658 FILLER_0_2_243
*659 FILLER_0_2_247
*660 FILLER_0_2_30
*661 FILLER_0_2_311
*662 FILLER_0_2_317
*663 FILLER_0_2_333
*664 FILLER_0_2_34
*665 FILLER_0_2_341
*666 FILLER_0_2_37
*667 FILLER_0_2_6
*668 FILLER_0_30_101
*669 FILLER_0_30_107
*670 FILLER_0_30_152
*671 FILLER_0_30_156
*672 FILLER_0_30_172
*673 FILLER_0_30_174
*674 FILLER_0_30_177
*675 FILLER_0_30_181
*676 FILLER_0_30_183
*677 FILLER_0_30_188
*678 FILLER_0_30_2
*679 FILLER_0_30_204
*680 FILLER_0_30_234
*681 FILLER_0_30_238
*682 FILLER_0_30_242
*683 FILLER_0_30_244
*684 FILLER_0_30_247
*685 FILLER_0_30_311
*686 FILLER_0_30_317
*687 FILLER_0_30_321
*688 FILLER_0_30_34
*689 FILLER_0_30_37
*690 FILLER_0_31_104
*691 FILLER_0_31_120
*692 FILLER_0_31_124
*693 FILLER_0_31_126
*694 FILLER_0_31_139
*695 FILLER_0_31_142
*696 FILLER_0_31_158
*697 FILLER_0_31_166
*698 FILLER_0_31_199
*699 FILLER_0_31_2
*700 FILLER_0_31_207
*701 FILLER_0_31_209
*702 FILLER_0_31_212
*703 FILLER_0_31_276
*704 FILLER_0_31_282
*705 FILLER_0_31_346
*706 FILLER_0_31_348
*707 FILLER_0_31_66
*708 FILLER_0_31_72
*709 FILLER_0_32_101
*710 FILLER_0_32_107
*711 FILLER_0_32_171
*712 FILLER_0_32_177
*713 FILLER_0_32_2
*714 FILLER_0_32_241
*715 FILLER_0_32_247
*716 FILLER_0_32_311
*717 FILLER_0_32_317
*718 FILLER_0_32_34
*719 FILLER_0_32_37
*720 FILLER_0_33_136
*721 FILLER_0_33_142
*722 FILLER_0_33_2
*723 FILLER_0_33_206
*724 FILLER_0_33_212
*725 FILLER_0_33_276
*726 FILLER_0_33_282
*727 FILLER_0_33_346
*728 FILLER_0_33_348
*729 FILLER_0_33_66
*730 FILLER_0_33_72
*731 FILLER_0_34_101
*732 FILLER_0_34_107
*733 FILLER_0_34_171
*734 FILLER_0_34_177
*735 FILLER_0_34_2
*736 FILLER_0_34_241
*737 FILLER_0_34_247
*738 FILLER_0_34_311
*739 FILLER_0_34_317
*740 FILLER_0_34_34
*741 FILLER_0_34_37
*742 FILLER_0_35_136
*743 FILLER_0_35_142
*744 FILLER_0_35_2
*745 FILLER_0_35_206
*746 FILLER_0_35_212
*747 FILLER_0_35_276
*748 FILLER_0_35_282
*749 FILLER_0_35_346
*750 FILLER_0_35_348
*751 FILLER_0_35_66
*752 FILLER_0_35_72
*753 FILLER_0_36_101
*754 FILLER_0_36_107
*755 FILLER_0_36_171
*756 FILLER_0_36_177
*757 FILLER_0_36_2
*758 FILLER_0_36_241
*759 FILLER_0_36_247
*760 FILLER_0_36_311
*761 FILLER_0_36_317
*762 FILLER_0_36_34
*763 FILLER_0_36_37
*764 FILLER_0_37_136
*765 FILLER_0_37_142
*766 FILLER_0_37_2
*767 FILLER_0_37_206
*768 FILLER_0_37_212
*769 FILLER_0_37_276
*770 FILLER_0_37_282
*771 FILLER_0_37_346
*772 FILLER_0_37_348
*773 FILLER_0_37_66
*774 FILLER_0_37_72
*775 FILLER_0_38_101
*776 FILLER_0_38_107
*777 FILLER_0_38_171
*778 FILLER_0_38_177
*779 FILLER_0_38_2
*780 FILLER_0_38_241
*781 FILLER_0_38_247
*782 FILLER_0_38_311
*783 FILLER_0_38_317
*784 FILLER_0_38_34
*785 FILLER_0_38_37
*786 FILLER_0_39_136
*787 FILLER_0_39_142
*788 FILLER_0_39_2
*789 FILLER_0_39_206
*790 FILLER_0_39_212
*791 FILLER_0_39_276
*792 FILLER_0_39_282
*793 FILLER_0_39_346
*794 FILLER_0_39_348
*795 FILLER_0_39_66
*796 FILLER_0_39_72
*797 FILLER_0_3_136
*798 FILLER_0_3_142
*799 FILLER_0_3_2
*800 FILLER_0_3_206
*801 FILLER_0_3_212
*802 FILLER_0_3_276
*803 FILLER_0_3_282
*804 FILLER_0_3_346
*805 FILLER_0_3_348
*806 FILLER_0_3_66
*807 FILLER_0_3_72
*808 FILLER_0_40_101
*809 FILLER_0_40_107
*810 FILLER_0_40_171
*811 FILLER_0_40_177
*812 FILLER_0_40_2
*813 FILLER_0_40_241
*814 FILLER_0_40_247
*815 FILLER_0_40_311
*816 FILLER_0_40_317
*817 FILLER_0_40_34
*818 FILLER_0_40_37
*819 FILLER_0_41_136
*820 FILLER_0_41_142
*821 FILLER_0_41_2
*822 FILLER_0_41_206
*823 FILLER_0_41_212
*824 FILLER_0_41_276
*825 FILLER_0_41_282
*826 FILLER_0_41_346
*827 FILLER_0_41_348
*828 FILLER_0_41_66
*829 FILLER_0_41_72
*830 FILLER_0_42_101
*831 FILLER_0_42_107
*832 FILLER_0_42_165
*833 FILLER_0_42_173
*834 FILLER_0_42_177
*835 FILLER_0_42_2
*836 FILLER_0_42_241
*837 FILLER_0_42_247
*838 FILLER_0_42_311
*839 FILLER_0_42_317
*840 FILLER_0_42_34
*841 FILLER_0_42_37
*842 FILLER_0_43_136
*843 FILLER_0_43_142
*844 FILLER_0_43_150
*845 FILLER_0_43_154
*846 FILLER_0_43_2
*847 FILLER_0_43_207
*848 FILLER_0_43_209
*849 FILLER_0_43_212
*850 FILLER_0_43_276
*851 FILLER_0_43_282
*852 FILLER_0_43_314
*853 FILLER_0_43_330
*854 FILLER_0_43_338
*855 FILLER_0_43_342
*856 FILLER_0_43_344
*857 FILLER_0_43_66
*858 FILLER_0_43_72
*859 FILLER_0_44_104
*860 FILLER_0_44_138
*861 FILLER_0_44_142
*862 FILLER_0_44_172
*863 FILLER_0_44_2
*864 FILLER_0_44_232
*865 FILLER_0_44_236
*866 FILLER_0_44_240
*867 FILLER_0_44_274
*868 FILLER_0_44_308
*869 FILLER_0_44_342
*870 FILLER_0_44_346
*871 FILLER_0_44_348
*872 FILLER_0_44_36
*873 FILLER_0_44_70
*874 FILLER_0_4_101
*875 FILLER_0_4_107
*876 FILLER_0_4_171
*877 FILLER_0_4_177
*878 FILLER_0_4_2
*879 FILLER_0_4_241
*880 FILLER_0_4_247
*881 FILLER_0_4_311
*882 FILLER_0_4_317
*883 FILLER_0_4_34
*884 FILLER_0_4_37
*885 FILLER_0_5_136
*886 FILLER_0_5_142
*887 FILLER_0_5_2
*888 FILLER_0_5_206
*889 FILLER_0_5_212
*890 FILLER_0_5_276
*891 FILLER_0_5_282
*892 FILLER_0_5_346
*893 FILLER_0_5_348
*894 FILLER_0_5_66
*895 FILLER_0_5_72
*896 FILLER_0_6_101
*897 FILLER_0_6_107
*898 FILLER_0_6_171
*899 FILLER_0_6_177
*900 FILLER_0_6_2
*901 FILLER_0_6_241
*902 FILLER_0_6_247
*903 FILLER_0_6_311
*904 FILLER_0_6_317
*905 FILLER_0_6_34
*906 FILLER_0_6_37
*907 FILLER_0_7_136
*908 FILLER_0_7_142
*909 FILLER_0_7_2
*910 FILLER_0_7_206
*911 FILLER_0_7_212
*912 FILLER_0_7_276
*913 FILLER_0_7_282
*914 FILLER_0_7_346
*915 FILLER_0_7_348
*916 FILLER_0_7_66
*917 FILLER_0_7_72
*918 FILLER_0_8_101
*919 FILLER_0_8_107
*920 FILLER_0_8_171
*921 FILLER_0_8_177
*922 FILLER_0_8_2
*923 FILLER_0_8_241
*924 FILLER_0_8_247
*925 FILLER_0_8_311
*926 FILLER_0_8_317
*927 FILLER_0_8_34
*928 FILLER_0_8_37
*929 FILLER_0_9_136
*930 FILLER_0_9_142
*931 FILLER_0_9_2
*932 FILLER_0_9_206
*933 FILLER_0_9_212
*934 FILLER_0_9_276
*935 FILLER_0_9_282
*936 FILLER_0_9_346
*937 FILLER_0_9_348
*938 FILLER_0_9_66
*939 FILLER_0_9_72
*940 PHY_EDGE_ROW_0_Left_45
*941 PHY_EDGE_ROW_0_Right_0
*942 PHY_EDGE_ROW_10_Left_55
*943 PHY_EDGE_ROW_10_Right_10
*944 PHY_EDGE_ROW_11_Left_56
*945 PHY_EDGE_ROW_11_Right_11
*946 PHY_EDGE_ROW_12_Left_57
*947 PHY_EDGE_ROW_12_Right_12
*948 PHY_EDGE_ROW_13_Left_58
*949 PHY_EDGE_ROW_13_Right_13
*950 PHY_EDGE_ROW_14_Left_59
*951 PHY_EDGE_ROW_14_Right_14
*952 PHY_EDGE_ROW_15_Left_60
*953 PHY_EDGE_ROW_15_Right_15
*954 PHY_EDGE_ROW_16_Left_61
*955 PHY_EDGE_ROW_16_Right_16
*956 PHY_EDGE_ROW_17_Left_62
*957 PHY_EDGE_ROW_17_Right_17
*958 PHY_EDGE_ROW_18_Left_63
*959 PHY_EDGE_ROW_18_Right_18
*960 PHY_EDGE_ROW_19_Left_64
*961 PHY_EDGE_ROW_19_Right_19
*962 PHY_EDGE_ROW_1_Left_46
*963 PHY_EDGE_ROW_1_Right_1
*964 PHY_EDGE_ROW_20_Left_65
*965 PHY_EDGE_ROW_20_Right_20
*966 PHY_EDGE_ROW_21_Left_66
*967 PHY_EDGE_ROW_21_Right_21
*968 PHY_EDGE_ROW_22_Left_67
*969 PHY_EDGE_ROW_22_Right_22
*970 PHY_EDGE_ROW_23_Left_68
*971 PHY_EDGE_ROW_23_Right_23
*972 PHY_EDGE_ROW_24_Left_69
*973 PHY_EDGE_ROW_24_Right_24
*974 PHY_EDGE_ROW_25_Left_70
*975 PHY_EDGE_ROW_25_Right_25
*976 PHY_EDGE_ROW_26_Left_71
*977 PHY_EDGE_ROW_26_Right_26
*978 PHY_EDGE_ROW_27_Left_72
*979 PHY_EDGE_ROW_27_Right_27
*980 PHY_EDGE_ROW_28_Left_73
*981 PHY_EDGE_ROW_28_Right_28
*982 PHY_EDGE_ROW_29_Left_74
*983 PHY_EDGE_ROW_29_Right_29
*984 PHY_EDGE_ROW_2_Left_47
*985 PHY_EDGE_ROW_2_Right_2
*986 PHY_EDGE_ROW_30_Left_75
*987 PHY_EDGE_ROW_30_Right_30
*988 PHY_EDGE_ROW_31_Left_76
*989 PHY_EDGE_ROW_31_Right_31
*990 PHY_EDGE_ROW_32_Left_77
*991 PHY_EDGE_ROW_32_Right_32
*992 PHY_EDGE_ROW_33_Left_78
*993 PHY_EDGE_ROW_33_Right_33
*994 PHY_EDGE_ROW_34_Left_79
*995 PHY_EDGE_ROW_34_Right_34
*996 PHY_EDGE_ROW_35_Left_80
*997 PHY_EDGE_ROW_35_Right_35
*998 PHY_EDGE_ROW_36_Left_81
*999 PHY_EDGE_ROW_36_Right_36
*1000 PHY_EDGE_ROW_37_Left_82
*1001 PHY_EDGE_ROW_37_Right_37
*1002 PHY_EDGE_ROW_38_Left_83
*1003 PHY_EDGE_ROW_38_Right_38
*1004 PHY_EDGE_ROW_39_Left_84
*1005 PHY_EDGE_ROW_39_Right_39
*1006 PHY_EDGE_ROW_3_Left_48
*1007 PHY_EDGE_ROW_3_Right_3
*1008 PHY_EDGE_ROW_40_Left_85
*1009 PHY_EDGE_ROW_40_Right_40
*1010 PHY_EDGE_ROW_41_Left_86
*1011 PHY_EDGE_ROW_41_Right_41
*1012 PHY_EDGE_ROW_42_Left_87
*1013 PHY_EDGE_ROW_42_Right_42
*1014 PHY_EDGE_ROW_43_Left_88
*1015 PHY_EDGE_ROW_43_Right_43
*1016 PHY_EDGE_ROW_44_Left_89
*1017 PHY_EDGE_ROW_44_Right_44
*1018 PHY_EDGE_ROW_4_Left_49
*1019 PHY_EDGE_ROW_4_Right_4
*1020 PHY_EDGE_ROW_5_Left_50
*1021 PHY_EDGE_ROW_5_Right_5
*1022 PHY_EDGE_ROW_6_Left_51
*1023 PHY_EDGE_ROW_6_Right_6
*1024 PHY_EDGE_ROW_7_Left_52
*1025 PHY_EDGE_ROW_7_Right_7
*1026 PHY_EDGE_ROW_8_Left_53
*1027 PHY_EDGE_ROW_8_Right_8
*1028 PHY_EDGE_ROW_9_Left_54
*1029 PHY_EDGE_ROW_9_Right_9
*1030 TAP_TAPCELL_ROW_0_90
*1031 TAP_TAPCELL_ROW_0_91
*1032 TAP_TAPCELL_ROW_0_92
*1033 TAP_TAPCELL_ROW_0_93
*1034 TAP_TAPCELL_ROW_0_94
*1035 TAP_TAPCELL_ROW_0_95
*1036 TAP_TAPCELL_ROW_0_96
*1037 TAP_TAPCELL_ROW_0_97
*1038 TAP_TAPCELL_ROW_0_98
*1039 TAP_TAPCELL_ROW_0_99
*1040 TAP_TAPCELL_ROW_10_140
*1041 TAP_TAPCELL_ROW_10_141
*1042 TAP_TAPCELL_ROW_10_142
*1043 TAP_TAPCELL_ROW_10_143
*1044 TAP_TAPCELL_ROW_10_144
*1045 TAP_TAPCELL_ROW_11_145
*1046 TAP_TAPCELL_ROW_11_146
*1047 TAP_TAPCELL_ROW_11_147
*1048 TAP_TAPCELL_ROW_11_148
*1049 TAP_TAPCELL_ROW_12_149
*1050 TAP_TAPCELL_ROW_12_150
*1051 TAP_TAPCELL_ROW_12_151
*1052 TAP_TAPCELL_ROW_12_152
*1053 TAP_TAPCELL_ROW_12_153
*1054 TAP_TAPCELL_ROW_13_154
*1055 TAP_TAPCELL_ROW_13_155
*1056 TAP_TAPCELL_ROW_13_156
*1057 TAP_TAPCELL_ROW_13_157
*1058 TAP_TAPCELL_ROW_14_158
*1059 TAP_TAPCELL_ROW_14_159
*1060 TAP_TAPCELL_ROW_14_160
*1061 TAP_TAPCELL_ROW_14_161
*1062 TAP_TAPCELL_ROW_14_162
*1063 TAP_TAPCELL_ROW_15_163
*1064 TAP_TAPCELL_ROW_15_164
*1065 TAP_TAPCELL_ROW_15_165
*1066 TAP_TAPCELL_ROW_15_166
*1067 TAP_TAPCELL_ROW_16_167
*1068 TAP_TAPCELL_ROW_16_168
*1069 TAP_TAPCELL_ROW_16_169
*1070 TAP_TAPCELL_ROW_16_170
*1071 TAP_TAPCELL_ROW_16_171
*1072 TAP_TAPCELL_ROW_17_172
*1073 TAP_TAPCELL_ROW_17_173
*1074 TAP_TAPCELL_ROW_17_174
*1075 TAP_TAPCELL_ROW_17_175
*1076 TAP_TAPCELL_ROW_18_176
*1077 TAP_TAPCELL_ROW_18_177
*1078 TAP_TAPCELL_ROW_18_178
*1079 TAP_TAPCELL_ROW_18_179
*1080 TAP_TAPCELL_ROW_18_180
*1081 TAP_TAPCELL_ROW_19_181
*1082 TAP_TAPCELL_ROW_19_182
*1083 TAP_TAPCELL_ROW_19_183
*1084 TAP_TAPCELL_ROW_19_184
*1085 TAP_TAPCELL_ROW_1_100
*1086 TAP_TAPCELL_ROW_1_101
*1087 TAP_TAPCELL_ROW_1_102
*1088 TAP_TAPCELL_ROW_1_103
*1089 TAP_TAPCELL_ROW_20_185
*1090 TAP_TAPCELL_ROW_20_186
*1091 TAP_TAPCELL_ROW_20_187
*1092 TAP_TAPCELL_ROW_20_188
*1093 TAP_TAPCELL_ROW_20_189
*1094 TAP_TAPCELL_ROW_21_190
*1095 TAP_TAPCELL_ROW_21_191
*1096 TAP_TAPCELL_ROW_21_192
*1097 TAP_TAPCELL_ROW_21_193
*1098 TAP_TAPCELL_ROW_22_194
*1099 TAP_TAPCELL_ROW_22_195
*1100 TAP_TAPCELL_ROW_22_196
*1101 TAP_TAPCELL_ROW_22_197
*1102 TAP_TAPCELL_ROW_22_198
*1103 TAP_TAPCELL_ROW_23_199
*1104 TAP_TAPCELL_ROW_23_200
*1105 TAP_TAPCELL_ROW_23_201
*1106 TAP_TAPCELL_ROW_23_202
*1107 TAP_TAPCELL_ROW_24_203
*1108 TAP_TAPCELL_ROW_24_204
*1109 TAP_TAPCELL_ROW_24_205
*1110 TAP_TAPCELL_ROW_24_206
*1111 TAP_TAPCELL_ROW_24_207
*1112 TAP_TAPCELL_ROW_25_208
*1113 TAP_TAPCELL_ROW_25_209
*1114 TAP_TAPCELL_ROW_25_210
*1115 TAP_TAPCELL_ROW_25_211
*1116 TAP_TAPCELL_ROW_26_212
*1117 TAP_TAPCELL_ROW_26_213
*1118 TAP_TAPCELL_ROW_26_214
*1119 TAP_TAPCELL_ROW_26_215
*1120 TAP_TAPCELL_ROW_26_216
*1121 TAP_TAPCELL_ROW_27_217
*1122 TAP_TAPCELL_ROW_27_218
*1123 TAP_TAPCELL_ROW_27_219
*1124 TAP_TAPCELL_ROW_27_220
*1125 TAP_TAPCELL_ROW_28_221
*1126 TAP_TAPCELL_ROW_28_222
*1127 TAP_TAPCELL_ROW_28_223
*1128 TAP_TAPCELL_ROW_28_224
*1129 TAP_TAPCELL_ROW_28_225
*1130 TAP_TAPCELL_ROW_29_226
*1131 TAP_TAPCELL_ROW_29_227
*1132 TAP_TAPCELL_ROW_29_228
*1133 TAP_TAPCELL_ROW_29_229
*1134 TAP_TAPCELL_ROW_2_104
*1135 TAP_TAPCELL_ROW_2_105
*1136 TAP_TAPCELL_ROW_2_106
*1137 TAP_TAPCELL_ROW_2_107
*1138 TAP_TAPCELL_ROW_2_108
*1139 TAP_TAPCELL_ROW_30_230
*1140 TAP_TAPCELL_ROW_30_231
*1141 TAP_TAPCELL_ROW_30_232
*1142 TAP_TAPCELL_ROW_30_233
*1143 TAP_TAPCELL_ROW_30_234
*1144 TAP_TAPCELL_ROW_31_235
*1145 TAP_TAPCELL_ROW_31_236
*1146 TAP_TAPCELL_ROW_31_237
*1147 TAP_TAPCELL_ROW_31_238
*1148 TAP_TAPCELL_ROW_32_239
*1149 TAP_TAPCELL_ROW_32_240
*1150 TAP_TAPCELL_ROW_32_241
*1151 TAP_TAPCELL_ROW_32_242
*1152 TAP_TAPCELL_ROW_32_243
*1153 TAP_TAPCELL_ROW_33_244
*1154 TAP_TAPCELL_ROW_33_245
*1155 TAP_TAPCELL_ROW_33_246
*1156 TAP_TAPCELL_ROW_33_247
*1157 TAP_TAPCELL_ROW_34_248
*1158 TAP_TAPCELL_ROW_34_249
*1159 TAP_TAPCELL_ROW_34_250
*1160 TAP_TAPCELL_ROW_34_251
*1161 TAP_TAPCELL_ROW_34_252
*1162 TAP_TAPCELL_ROW_35_253
*1163 TAP_TAPCELL_ROW_35_254
*1164 TAP_TAPCELL_ROW_35_255
*1165 TAP_TAPCELL_ROW_35_256
*1166 TAP_TAPCELL_ROW_36_257
*1167 TAP_TAPCELL_ROW_36_258
*1168 TAP_TAPCELL_ROW_36_259
*1169 TAP_TAPCELL_ROW_36_260
*1170 TAP_TAPCELL_ROW_36_261
*1171 TAP_TAPCELL_ROW_37_262
*1172 TAP_TAPCELL_ROW_37_263
*1173 TAP_TAPCELL_ROW_37_264
*1174 TAP_TAPCELL_ROW_37_265
*1175 TAP_TAPCELL_ROW_38_266
*1176 TAP_TAPCELL_ROW_38_267
*1177 TAP_TAPCELL_ROW_38_268
*1178 TAP_TAPCELL_ROW_38_269
*1179 TAP_TAPCELL_ROW_38_270
*1180 TAP_TAPCELL_ROW_39_271
*1181 TAP_TAPCELL_ROW_39_272
*1182 TAP_TAPCELL_ROW_39_273
*1183 TAP_TAPCELL_ROW_39_274
*1184 TAP_TAPCELL_ROW_3_109
*1185 TAP_TAPCELL_ROW_3_110
*1186 TAP_TAPCELL_ROW_3_111
*1187 TAP_TAPCELL_ROW_3_112
*1188 TAP_TAPCELL_ROW_40_275
*1189 TAP_TAPCELL_ROW_40_276
*1190 TAP_TAPCELL_ROW_40_277
*1191 TAP_TAPCELL_ROW_40_278
*1192 TAP_TAPCELL_ROW_40_279
*1193 TAP_TAPCELL_ROW_41_280
*1194 TAP_TAPCELL_ROW_41_281
*1195 TAP_TAPCELL_ROW_41_282
*1196 TAP_TAPCELL_ROW_41_283
*1197 TAP_TAPCELL_ROW_42_284
*1198 TAP_TAPCELL_ROW_42_285
*1199 TAP_TAPCELL_ROW_42_286
*1200 TAP_TAPCELL_ROW_42_287
*1201 TAP_TAPCELL_ROW_42_288
*1202 TAP_TAPCELL_ROW_43_289
*1203 TAP_TAPCELL_ROW_43_290
*1204 TAP_TAPCELL_ROW_43_291
*1205 TAP_TAPCELL_ROW_43_292
*1206 TAP_TAPCELL_ROW_44_293
*1207 TAP_TAPCELL_ROW_44_294
*1208 TAP_TAPCELL_ROW_44_295
*1209 TAP_TAPCELL_ROW_44_296
*1210 TAP_TAPCELL_ROW_44_297
*1211 TAP_TAPCELL_ROW_44_298
*1212 TAP_TAPCELL_ROW_44_299
*1213 TAP_TAPCELL_ROW_44_300
*1214 TAP_TAPCELL_ROW_44_301
*1215 TAP_TAPCELL_ROW_44_302
*1216 TAP_TAPCELL_ROW_4_113
*1217 TAP_TAPCELL_ROW_4_114
*1218 TAP_TAPCELL_ROW_4_115
*1219 TAP_TAPCELL_ROW_4_116
*1220 TAP_TAPCELL_ROW_4_117
*1221 TAP_TAPCELL_ROW_5_118
*1222 TAP_TAPCELL_ROW_5_119
*1223 TAP_TAPCELL_ROW_5_120
*1224 TAP_TAPCELL_ROW_5_121
*1225 TAP_TAPCELL_ROW_6_122
*1226 TAP_TAPCELL_ROW_6_123
*1227 TAP_TAPCELL_ROW_6_124
*1228 TAP_TAPCELL_ROW_6_125
*1229 TAP_TAPCELL_ROW_6_126
*1230 TAP_TAPCELL_ROW_7_127
*1231 TAP_TAPCELL_ROW_7_128
*1232 TAP_TAPCELL_ROW_7_129
*1233 TAP_TAPCELL_ROW_7_130
*1234 TAP_TAPCELL_ROW_8_131
*1235 TAP_TAPCELL_ROW_8_132
*1236 TAP_TAPCELL_ROW_8_133
*1237 TAP_TAPCELL_ROW_8_134
*1238 TAP_TAPCELL_ROW_8_135
*1239 TAP_TAPCELL_ROW_9_136
*1240 TAP_TAPCELL_ROW_9_137
*1241 TAP_TAPCELL_ROW_9_138
*1242 TAP_TAPCELL_ROW_9_139
*1243 _113_
*1244 _114_
*1245 _115_
*1246 _116_
*1247 _117_
*1248 _118_
*1249 _119_
*1250 _120_
*1251 _121_
*1252 _122_
*1253 _123_
*1254 _124_
*1255 _125_
*1256 _126_
*1257 _127_
*1258 _128_
*1259 _129_
*1260 _130_
*1261 _131_
*1262 _132_
*1263 _133_
*1264 _134_
*1265 _135_
*1266 _136_
*1267 _137_
*1268 _138_
*1269 _139_
*1270 _140_
*1271 _141_
*1272 _142_
*1273 _143_
*1274 _144_
*1275 _145_
*1276 _146_
*1277 _147_
*1278 _148_
*1279 _149_
*1280 _150_
*1281 _151_
*1282 _152_
*1283 _153_
*1284 _154_
*1285 _155_
*1286 _156_
*1287 _157_
*1288 _158_
*1289 _159_
*1290 _160_
*1291 _161_
*1292 _162_
*1293 _163_
*1294 _164_
*1295 _165_
*1296 _166_
*1297 _167_
*1298 _168_
*1299 _169_
*1300 _170_
*1301 _171_
*1302 _172_
*1303 _173_
*1304 _174_
*1305 _175_
*1306 _176_
*1307 _177_
*1308 _178_
*1309 _179_
*1310 _180_
*1311 _181_
*1312 _182_
*1313 _183_
*1314 _184_
*1315 _185_
*1316 _186_
*1317 _187_
*1318 _188_
*1319 _189_
*1320 _190_
*1321 _191_
*1322 _192_
*1323 _193_
*1324 _194_
*1325 _195_
*1326 _196_
*1327 _197_
*1328 _198_
*1329 _199_
*1330 _200_
*1331 _201_
*1332 _202_
*1333 _203_
*1334 _204_
*1335 _205_
*1336 _206_
*1337 _207_
*1338 _208_
*1339 _209_
*1340 _210_
*1341 _211_
*1342 _212_
*1343 _213_
*1344 _214_
*1345 _215_
*1346 _216_
*1347 _217_
*1348 _218_
*1349 _219_
*1350 _220_
*1351 _221_
*1352 _222_
*1353 _223_
*1354 _224_
*1355 _225_
*1356 _226_
*1357 _227_
*1358 _228_
*1359 _229_
*1360 _230_
*1361 _231_
*1362 _232_
*1363 _233_
*1364 _234_
*1365 _235_
*1366 _236_
*1367 _237_
*1368 _238_
*1369 _239_
*1370 _240_
*1371 _241_
*1372 _242_
*1373 _243_
*1374 _244_
*1375 _245_
*1376 _246_
*1377 _247_
*1378 _248_
*1379 _249_
*1380 _250_
*1381 _251_
*1382 _255_
*1383 clkbuf_0_clk
*1384 clkbuf_1_0__f_clk
*1385 clkbuf_1_1__f_clk
*1386 ita50_24
*1387 ita50_25
*1388 ita50_26
*1389 output1
*1390 output10
*1391 output11
*1392 output12
*1393 output13
*1394 output14
*1395 output15
*1396 output16
*1397 output17
*1398 output18
*1399 output19
*1400 output2
*1401 output20
*1402 output21
*1403 output22
*1404 output23
*1405 output3
*1406 output4
*1407 output5
*1408 output6
*1409 output7
*1410 output8
*1411 output9

*PORTS
clk I
segm[0] O
segm[10] O
segm[11] O
segm[12] O
segm[13] O
segm[1] O
segm[2] O
segm[3] O
segm[4] O
segm[5] O
segm[6] O
segm[7] O
segm[8] O
segm[9] O
sel[0] O
sel[10] O
sel[11] O
sel[1] O
sel[2] O
sel[3] O
sel[4] O
sel[5] O
sel[6] O
sel[7] O
sel[8] O
sel[9] O

*D_NET *1 0.0135521
*CONN
*P clk I
*I *1383:I I *D gf180mcu_fd_sc_mcu7t5v0__clkbuf_16
*I *200:I I *D gf180mcu_fd_sc_mcu7t5v0__antenna
*CAP
1 clk 0.00468152
2 *1383:I 0.000286321
3 *200:I 0
4 *1:13 0.00496784
5 *1383:I *131:21 0.000921514
6 *1383:I *134:10 0
7 *1:13 *1256:I 0
8 *1:13 *1279:A1 0.00076662
9 *1:13 *1347:A1 0
10 *1:13 *1348:A1 2.5529e-05
11 *1:13 *1361:D 9.31207e-05
12 *1:13 *1378:D 0.000254652
13 *1:13 *1394:I 2.6126e-05
14 *1:13 *115:10 0
15 *1:13 *115:16 0
16 *1:13 *131:21 0.00152891
*RES
1 clk *1:13 43.086 
2 *1:13 *200:I 9 
3 *1:13 *1383:I 11.508 
*END

*D_NET *2 0.00057497
*CONN
*P segm[0] O
*I *1386:ZN O *D gf180mcu_fd_sc_mcu7t5v0__tiel
*CAP
1 segm[0] 0.000287485
2 *1386:ZN 0.000287485
*RES
1 *1386:ZN segm[0] 10.938 
*END

*D_NET *3 0.00083944
*CONN
*P segm[10] O