*SPEF "ieee 1481-1999"
*DESIGN "ita54"
*DATE "11:11:11 Fri 11 11, 1111"
*VENDOR "OpenRCX"
*PROGRAM "Parallel Extraction"
*VERSION "1.0"
*DESIGN_FLOW "NAME_SCOPE LOCAL" "PIN_CAP NONE"
*DIVIDER /
*DELIMITER :
*BUS_DELIMITER []
*T_UNIT 1 NS
*C_UNIT 1 PF
*R_UNIT 1 OHM
*L_UNIT 1 HENRY

*NAME_MAP
*1 clk
*2 net26
*3 segm[10]
*4 segm[11]
*5 segm[12]
*6 segm[13]
*7 segm[1]
*8 segm[2]
*9 segm[3]
*10 segm[4]
*11 segm[5]
*12 segm[6]
*13 segm[7]
*14 segm[8]
*15 segm[9]
*16 sel[0]
*17 sel[10]
*18 sel[11]
*19 sel[1]
*20 sel[2]
*21 sel[3]
*22 sel[4]
*23 sel[5]
*24 sel[6]
*25 sel[7]
*26 sel[8]
*27 sel[9]
*30 _000_
*31 _001_
*32 _002_
*33 _003_
*34 _004_
*35 _005_
*36 _006_
*37 _007_
*38 _008_
*39 _009_
*40 _010_
*41 _011_
*42 _012_
*43 _013_
*44 _014_
*45 _015_
*46 _016_
*47 _017_
*48 _018_
*49 _019_
*50 _020_
*51 _021_
*52 _022_
*53 _023_
*54 _024_
*55 _025_
*56 _026_
*57 _027_
*58 _028_
*59 _029_
*60 _030_
*61 _031_
*62 _032_
*63 _033_
*64 _034_
*65 _035_
*66 _036_
*67 _037_
*68 _038_
*69 _039_
*70 _040_
*71 _041_
*72 _042_
*73 _043_
*74 _044_
*75 _045_
*76 _046_
*77 _047_
*78 _048_
*79 _049_
*80 _050_
*81 _051_
*82 _052_
*83 _053_
*84 _054_
*85 _055_
*86 _056_
*87 _057_
*88 _058_
*89 _059_
*90 _060_
*91 _061_
*92 _062_
*93 _063_
*94 _064_
*95 _065_
*96 _066_
*97 _067_
*98 _068_
*99 _069_
*100 _070_
*101 _071_
*102 _072_
*103 _073_
*104 _074_
*105 _075_
*106 _076_
*107 _077_
*108 _078_
*109 _079_
*110 _080_
*111 _081_
*112 _082_
*113 _083_
*114 _084_
*115 _085_
*116 _086_
*117 _087_
*118 _088_
*119 _089_
*120 _090_
*121 _091_
*122 _092_
*123 _093_
*124 clknet_0_clk
*125 clknet_1_0__leaf_clk
*126 clknet_1_1__leaf_clk
*127 dut54\.count\[0\]
*128 dut54\.count\[1\]
*129 dut54\.count\[2\]
*130 dut54\.count\[3\]
*131 net1
*132 net10
*133 net11
*134 net12
*135 net13
*136 net14
*137 net15
*138 net16
*139 net17
*140 net18
*141 net19
*142 net2
*143 net20
*144 net21
*145 net22
*146 net23
*147 net24
*148 net25
*149 net3
*150 net4
*151 net5
*152 net6
*153 net7
*154 net8
*155 net9
*156 ANTENNA__189__CLK
*157 ANTENNA__193__CLK
*158 ANTENNA__195__CLK
*159 ANTENNA__196__CLK
*160 ANTENNA__199__CLK
*161 ANTENNA__200__CLK
*162 ANTENNA__201__CLK
*163 ANTENNA__204__CLK
*164 ANTENNA__205__CLK
*165 ANTENNA__206__CLK
*166 ANTENNA__207__CLK
*167 ANTENNA__210__CLK
*168 ANTENNA_clkbuf_0_clk_I
*169 FILLER_0_0_104
*170 FILLER_0_0_138
*171 FILLER_0_0_165
*172 FILLER_0_0_169
*173 FILLER_0_0_172
*174 FILLER_0_0_2
*175 FILLER_0_0_206
*176 FILLER_0_0_240
*177 FILLER_0_0_274
*178 FILLER_0_0_308
*179 FILLER_0_0_342
*180 FILLER_0_0_346
*181 FILLER_0_0_348
*182 FILLER_0_0_36
*183 FILLER_0_0_70
*184 FILLER_0_10_101
*185 FILLER_0_10_107
*186 FILLER_0_10_171
*187 FILLER_0_10_177
*188 FILLER_0_10_2
*189 FILLER_0_10_241
*190 FILLER_0_10_247
*191 FILLER_0_10_311
*192 FILLER_0_10_317
*193 FILLER_0_10_34
*194 FILLER_0_10_37
*195 FILLER_0_11_136
*196 FILLER_0_11_142
*197 FILLER_0_11_2
*198 FILLER_0_11_206
*199 FILLER_0_11_212
*200 FILLER_0_11_276
*201 FILLER_0_11_282
*202 FILLER_0_11_346
*203 FILLER_0_11_348
*204 FILLER_0_11_66
*205 FILLER_0_11_72
*206 FILLER_0_12_101
*207 FILLER_0_12_107
*208 FILLER_0_12_171
*209 FILLER_0_12_177
*210 FILLER_0_12_2
*211 FILLER_0_12_241
*212 FILLER_0_12_247
*213 FILLER_0_12_311
*214 FILLER_0_12_317
*215 FILLER_0_12_34
*216 FILLER_0_12_37
*217 FILLER_0_13_136
*218 FILLER_0_13_142
*219 FILLER_0_13_2
*220 FILLER_0_13_206
*221 FILLER_0_13_212
*222 FILLER_0_13_276
*223 FILLER_0_13_282
*224 FILLER_0_13_346
*225 FILLER_0_13_348
*226 FILLER_0_13_66
*227 FILLER_0_13_72
*228 FILLER_0_14_101
*229 FILLER_0_14_107
*230 FILLER_0_14_139
*231 FILLER_0_14_172
*232 FILLER_0_14_174
*233 FILLER_0_14_177
*234 FILLER_0_14_2
*235 FILLER_0_14_241
*236 FILLER_0_14_247
*237 FILLER_0_14_311
*238 FILLER_0_14_317
*239 FILLER_0_14_34
*240 FILLER_0_14_37
*241 FILLER_0_15_100
*242 FILLER_0_15_131
*243 FILLER_0_15_139
*244 FILLER_0_15_142
*245 FILLER_0_15_150
*246 FILLER_0_15_181
*247 FILLER_0_15_185
*248 FILLER_0_15_2
*249 FILLER_0_15_201
*250 FILLER_0_15_209
*251 FILLER_0_15_212
*252 FILLER_0_15_276
*253 FILLER_0_15_282
*254 FILLER_0_15_346
*255 FILLER_0_15_348
*256 FILLER_0_15_66
*257 FILLER_0_15_72
*258 FILLER_0_15_88
*259 FILLER_0_15_96
*260 FILLER_0_16_101
*261 FILLER_0_16_107
*262 FILLER_0_16_144
*263 FILLER_0_16_152
*264 FILLER_0_16_172
*265 FILLER_0_16_174
*266 FILLER_0_16_181
*267 FILLER_0_16_2
*268 FILLER_0_16_247
*269 FILLER_0_16_311
*270 FILLER_0_16_317
*271 FILLER_0_16_34
*272 FILLER_0_16_37
*273 FILLER_0_17_106
*274 FILLER_0_17_114
*275 FILLER_0_17_118
*276 FILLER_0_17_125
*277 FILLER_0_17_133
*278 FILLER_0_17_137
*279 FILLER_0_17_139
*280 FILLER_0_17_142
*281 FILLER_0_17_176
*282 FILLER_0_17_180
*283 FILLER_0_17_212
*284 FILLER_0_17_216
*285 FILLER_0_17_28
*286 FILLER_0_17_282
*287 FILLER_0_17_346
*288 FILLER_0_17_348
*289 FILLER_0_17_60
*290 FILLER_0_17_68
*291 FILLER_0_17_72
*292 FILLER_0_17_80
*293 FILLER_0_17_84
*294 FILLER_0_17_90
*295 FILLER_0_18_103
*296 FILLER_0_18_107
*297 FILLER_0_18_135
*298 FILLER_0_18_151
*299 FILLER_0_18_153
*300 FILLER_0_18_159
*301 FILLER_0_18_171
*302 FILLER_0_18_185
*303 FILLER_0_18_195
*304 FILLER_0_18_211
*305 FILLER_0_18_213
*306 FILLER_0_18_243
*307 FILLER_0_18_247
*308 FILLER_0_18_251
*309 FILLER_0_18_28
*310 FILLER_0_18_317
*311 FILLER_0_18_32
*312 FILLER_0_18_321
*313 FILLER_0_18_34
*314 FILLER_0_18_37
*315 FILLER_0_18_69
*316 FILLER_0_18_99
*317 FILLER_0_19_107
*318 FILLER_0_19_123
*319 FILLER_0_19_127
*320 FILLER_0_19_136
*321 FILLER_0_19_142
*322 FILLER_0_19_150
*323 FILLER_0_19_154
*324 FILLER_0_19_156
*325 FILLER_0_19_162
*326 FILLER_0_19_164
*327 FILLER_0_19_186
*328 FILLER_0_19_194
*329 FILLER_0_19_2
*330 FILLER_0_19_241
*331 FILLER_0_19_245
*332 FILLER_0_19_277
*333 FILLER_0_19_279
*334 FILLER_0_19_282
*335 FILLER_0_19_314
*336 FILLER_0_19_322
*337 FILLER_0_19_66
*338 FILLER_0_19_72
*339 FILLER_0_19_80
*340 FILLER_0_19_84
*341 FILLER_0_19_90
*342 FILLER_0_1_136
*343 FILLER_0_1_142
*344 FILLER_0_1_2
*345 FILLER_0_1_206
*346 FILLER_0_1_212
*347 FILLER_0_1_276
*348 FILLER_0_1_282
*349 FILLER_0_1_346
*350 FILLER_0_1_348
*351 FILLER_0_1_66
*352 FILLER_0_1_72
*353 FILLER_0_20_103
*354 FILLER_0_20_120
*355 FILLER_0_20_124
*356 FILLER_0_20_160
*357 FILLER_0_20_190
*358 FILLER_0_20_2
*359 FILLER_0_20_203
*360 FILLER_0_20_214
*361 FILLER_0_20_223
*362 FILLER_0_20_227
*363 FILLER_0_20_235
*364 FILLER_0_20_243
*365 FILLER_0_20_247
*366 FILLER_0_20_311
*367 FILLER_0_20_317
*368 FILLER_0_20_321
*369 FILLER_0_20_34
*370 FILLER_0_20_37
*371 FILLER_0_20_53
*372 FILLER_0_20_61
*373 FILLER_0_20_65
*374 FILLER_0_20_95
*375 FILLER_0_21_138
*376 FILLER_0_21_142
*377 FILLER_0_21_184
*378 FILLER_0_21_200
*379 FILLER_0_21_208
*380 FILLER_0_21_212
*381 FILLER_0_21_220
*382 FILLER_0_21_253
*383 FILLER_0_21_269
*384 FILLER_0_21_277
*385 FILLER_0_21_279
*386 FILLER_0_21_28
*387 FILLER_0_21_282
*388 FILLER_0_21_314
*389 FILLER_0_21_322
*390 FILLER_0_21_60
*391 FILLER_0_21_68
*392 FILLER_0_21_72
*393 FILLER_0_21_80
*394 FILLER_0_22_100
*395 FILLER_0_22_104
*396 FILLER_0_22_118
*397 FILLER_0_22_122
*398 FILLER_0_22_124
*399 FILLER_0_22_2
*400 FILLER_0_22_200
*401 FILLER_0_22_208
*402 FILLER_0_22_212
*403 FILLER_0_22_224
*404 FILLER_0_22_240
*405 FILLER_0_22_244
*406 FILLER_0_22_247
*407 FILLER_0_22_311
*408 FILLER_0_22_317
*409 FILLER_0_22_34
*410 FILLER_0_22_37
*411 FILLER_0_22_69
*412 FILLER_0_22_77
*413 FILLER_0_22_81
*414 FILLER_0_22_83
*415 FILLER_0_22_92
*416 FILLER_0_23_106
*417 FILLER_0_23_122
*418 FILLER_0_23_126
*419 FILLER_0_23_134
*420 FILLER_0_23_2
*421 FILLER_0_23_212
*422 FILLER_0_23_214
*423 FILLER_0_23_244
*424 FILLER_0_23_248
*425 FILLER_0_23_282
*426 FILLER_0_23_314
*427 FILLER_0_23_322
*428 FILLER_0_23_66
*429 FILLER_0_24_101
*430 FILLER_0_24_107
*431 FILLER_0_24_109
*432 FILLER_0_24_115
*433 FILLER_0_24_123
*434 FILLER_0_24_127
*435 FILLER_0_24_139
*436 FILLER_0_24_141
*437 FILLER_0_24_148
*438 FILLER_0_24_159
*439 FILLER_0_24_163
*440 FILLER_0_24_170
*441 FILLER_0_24_174
*442 FILLER_0_24_184
*443 FILLER_0_24_236
*444 FILLER_0_24_244
*445 FILLER_0_24_247
*446 FILLER_0_24_28
*447 FILLER_0_24_311
*448 FILLER_0_24_317
*449 FILLER_0_24_32
*450 FILLER_0_24_321
*451 FILLER_0_24_34
*452 FILLER_0_24_37
*453 FILLER_0_25_125
*454 FILLER_0_25_127
*455 FILLER_0_25_142
*456 FILLER_0_25_156
*457 FILLER_0_25_160
*458 FILLER_0_25_167
*459 FILLER_0_25_171
*460 FILLER_0_25_2
*461 FILLER_0_25_212
*462 FILLER_0_25_225
*463 FILLER_0_25_232
*464 FILLER_0_25_242
*465 FILLER_0_25_252
*466 FILLER_0_25_268
*467 FILLER_0_25_276
*468 FILLER_0_25_282
*469 FILLER_0_25_314
*470 FILLER_0_25_322
*471 FILLER_0_25_66
*472 FILLER_0_25_72
*473 FILLER_0_25_88
*474 FILLER_0_26_101
*475 FILLER_0_26_107
*476 FILLER_0_26_114
*477 FILLER_0_26_122
*478 FILLER_0_26_134
*479 FILLER_0_26_142
*480 FILLER_0_26_146
*481 FILLER_0_26_157
*482 FILLER_0_26_173
*483 FILLER_0_26_177
*484 FILLER_0_26_189
*485 FILLER_0_26_2
*486 FILLER_0_26_201
*487 FILLER_0_26_209
*488 FILLER_0_26_212
*489 FILLER_0_26_228
*490 FILLER_0_26_232
*491 FILLER_0_26_238
*492 FILLER_0_26_242
*493 FILLER_0_26_244
*494 FILLER_0_26_247
*495 FILLER_0_26_311
*496 FILLER_0_26_317
*497 FILLER_0_26_321
*498 FILLER_0_26_34
*499 FILLER_0_26_37
*500 FILLER_0_27_102
*501 FILLER_0_27_106
*502 FILLER_0_27_116
*503 FILLER_0_27_120
*504 FILLER_0_27_133
*505 FILLER_0_27_137
*506 FILLER_0_27_139
*507 FILLER_0_27_142
*508 FILLER_0_27_158
*509 FILLER_0_27_166
*510 FILLER_0_27_176
*511 FILLER_0_27_192
*512 FILLER_0_27_2
*513 FILLER_0_27_202
*514 FILLER_0_27_212
*515 FILLER_0_27_216
*516 FILLER_0_27_218
*517 FILLER_0_27_224
*518 FILLER_0_27_226
*519 FILLER_0_27_232
*520 FILLER_0_27_238
*521 FILLER_0_27_242
*522 FILLER_0_27_244
*523 FILLER_0_27_247
*524 FILLER_0_27_279
*525 FILLER_0_27_282
*526 FILLER_0_27_314
*527 FILLER_0_27_322
*528 FILLER_0_27_66
*529 FILLER_0_27_72
*530 FILLER_0_27_88
*531 FILLER_0_27_96
*532 FILLER_0_28_107
*533 FILLER_0_28_115
*534 FILLER_0_28_117
*535 FILLER_0_28_123
*536 FILLER_0_28_125
*537 FILLER_0_28_155
*538 FILLER_0_28_185
*539 FILLER_0_28_193
*540 FILLER_0_28_197
*541 FILLER_0_28_199
*542 FILLER_0_28_209
*543 FILLER_0_28_213
*544 FILLER_0_28_215
*545 FILLER_0_28_253
*546 FILLER_0_28_28
*547 FILLER_0_28_285
*548 FILLER_0_28_301
*549 FILLER_0_28_309
*550 FILLER_0_28_313
*551 FILLER_0_28_317
*552 FILLER_0_28_32
*553 FILLER_0_28_321
*554 FILLER_0_28_34
*555 FILLER_0_28_37
*556 FILLER_0_28_69
*557 FILLER_0_28_73
*558 FILLER_0_28_75
*559 FILLER_0_29_130
*560 FILLER_0_29_138
*561 FILLER_0_29_148
*562 FILLER_0_29_181
*563 FILLER_0_29_185
*564 FILLER_0_29_193
*565 FILLER_0_29_197
*566 FILLER_0_29_203
*567 FILLER_0_29_207
*568 FILLER_0_29_209
*569 FILLER_0_29_212
*570 FILLER_0_29_214
*571 FILLER_0_29_217
*572 FILLER_0_29_225
*573 FILLER_0_29_232
*574 FILLER_0_29_242
*575 FILLER_0_29_274
*576 FILLER_0_29_278
*577 FILLER_0_29_28
*578 FILLER_0_29_282
*579 FILLER_0_29_314
*580 FILLER_0_29_322
*581 FILLER_0_29_60
*582 FILLER_0_29_68
*583 FILLER_0_29_72
*584 FILLER_0_29_88
*585 FILLER_0_29_92
*586 FILLER_0_29_94
*587 FILLER_0_2_101
*588 FILLER_0_2_107
*589 FILLER_0_2_171
*590 FILLER_0_2_177
*591 FILLER_0_2_2
*592 FILLER_0_2_241
*593 FILLER_0_2_247
*594 FILLER_0_2_311
*595 FILLER_0_2_317
*596 FILLER_0_2_34
*597 FILLER_0_2_37
*598 FILLER_0_30_101
*599 FILLER_0_30_107
*600 FILLER_0_30_171
*601 FILLER_0_30_177
*602 FILLER_0_30_185
*603 FILLER_0_30_244
*604 FILLER_0_30_247
*605 FILLER_0_30_251
*606 FILLER_0_30_28
*607 FILLER_0_30_317
*608 FILLER_0_30_32
*609 FILLER_0_30_321
*610 FILLER_0_30_34
*611 FILLER_0_30_37
*612 FILLER_0_31_136
*613 FILLER_0_31_142
*614 FILLER_0_31_158
*615 FILLER_0_31_188
*616 FILLER_0_31_192
*617 FILLER_0_31_2
*618 FILLER_0_31_208
*619 FILLER_0_31_212
*620 FILLER_0_31_276
*621 FILLER_0_31_282
*622 FILLER_0_31_314
*623 FILLER_0_31_322
*624 FILLER_0_31_66
*625 FILLER_0_31_72
*626 FILLER_0_32_101
*627 FILLER_0_32_107
*628 FILLER_0_32_171
*629 FILLER_0_32_177
*630 FILLER_0_32_2
*631 FILLER_0_32_241
*632 FILLER_0_32_247
*633 FILLER_0_32_311
*634 FILLER_0_32_317
*635 FILLER_0_32_34
*636 FILLER_0_32_37
*637 FILLER_0_33_136
*638 FILLER_0_33_142
*639 FILLER_0_33_2
*640 FILLER_0_33_206
*641 FILLER_0_33_212
*642 FILLER_0_33_276
*643 FILLER_0_33_282
*644 FILLER_0_33_346
*645 FILLER_0_33_348
*646 FILLER_0_33_66
*647 FILLER_0_33_72
*648 FILLER_0_34_101
*649 FILLER_0_34_107
*650 FILLER_0_34_171
*651 FILLER_0_34_177
*652 FILLER_0_34_2
*653 FILLER_0_34_241
*654 FILLER_0_34_247
*655 FILLER_0_34_311
*656 FILLER_0_34_317
*657 FILLER_0_34_34
*658 FILLER_0_34_37
*659 FILLER_0_35_136
*660 FILLER_0_35_142
*661 FILLER_0_35_2
*662 FILLER_0_35_206
*663 FILLER_0_35_212
*664 FILLER_0_35_276
*665 FILLER_0_35_282
*666 FILLER_0_35_346
*667 FILLER_0_35_348
*668 FILLER_0_35_66
*669 FILLER_0_35_72
*670 FILLER_0_36_101
*671 FILLER_0_36_107
*672 FILLER_0_36_171
*673 FILLER_0_36_177
*674 FILLER_0_36_2
*675 FILLER_0_36_241
*676 FILLER_0_36_247
*677 FILLER_0_36_311
*678 FILLER_0_36_317
*679 FILLER_0_36_34
*680 FILLER_0_36_37
*681 FILLER_0_37_136
*682 FILLER_0_37_142
*683 FILLER_0_37_2
*684 FILLER_0_37_206
*685 FILLER_0_37_212
*686 FILLER_0_37_276
*687 FILLER_0_37_282
*688 FILLER_0_37_346
*689 FILLER_0_37_348
*690 FILLER_0_37_66
*691 FILLER_0_37_72
*692 FILLER_0_38_101
*693 FILLER_0_38_107
*694 FILLER_0_38_171
*695 FILLER_0_38_177
*696 FILLER_0_38_2
*697 FILLER_0_38_241
*698 FILLER_0_38_247
*699 FILLER_0_38_311
*700 FILLER_0_38_317
*701 FILLER_0_38_34
*702 FILLER_0_38_37
*703 FILLER_0_39_136
*704 FILLER_0_39_142
*705 FILLER_0_39_2
*706 FILLER_0_39_206
*707 FILLER_0_39_212
*708 FILLER_0_39_276
*709 FILLER_0_39_282
*710 FILLER_0_39_346
*711 FILLER_0_39_348
*712 FILLER_0_39_66
*713 FILLER_0_39_72
*714 FILLER_0_3_136
*715 FILLER_0_3_142
*716 FILLER_0_3_2
*717 FILLER_0_3_206
*718 FILLER_0_3_212
*719 FILLER_0_3_276
*720 FILLER_0_3_282
*721 FILLER_0_3_346
*722 FILLER_0_3_348
*723 FILLER_0_3_66
*724 FILLER_0_3_72
*725 FILLER_0_40_101
*726 FILLER_0_40_107
*727 FILLER_0_40_171
*728 FILLER_0_40_177
*729 FILLER_0_40_2
*730 FILLER_0_40_241
*731 FILLER_0_40_247
*732 FILLER_0_40_311
*733 FILLER_0_40_317
*734 FILLER_0_40_34
*735 FILLER_0_40_37
*736 FILLER_0_41_136
*737 FILLER_0_41_142
*738 FILLER_0_41_2
*739 FILLER_0_41_206
*740 FILLER_0_41_212
*741 FILLER_0_41_276
*742 FILLER_0_41_282
*743 FILLER_0_41_346
*744 FILLER_0_41_348
*745 FILLER_0_41_66
*746 FILLER_0_41_72
*747 FILLER_0_42_101
*748 FILLER_0_42_107
*749 FILLER_0_42_171
*750 FILLER_0_42_177
*751 FILLER_0_42_2
*752 FILLER_0_42_241
*753 FILLER_0_42_247
*754 FILLER_0_42_311
*755 FILLER_0_42_317
*756 FILLER_0_42_34
*757 FILLER_0_42_37
*758 FILLER_0_43_136
*759 FILLER_0_43_142
*760 FILLER_0_43_174
*761 FILLER_0_43_2
*762 FILLER_0_43_201
*763 FILLER_0_43_209
*764 FILLER_0_43_212
*765 FILLER_0_43_276
*766 FILLER_0_43_282
*767 FILLER_0_43_314
*768 FILLER_0_43_330
*769 FILLER_0_43_338
*770 FILLER_0_43_342
*771 FILLER_0_43_344
*772 FILLER_0_43_66
*773 FILLER_0_43_72
*774 FILLER_0_44_104
*775 FILLER_0_44_138
*776 FILLER_0_44_142
*777 FILLER_0_44_172
*778 FILLER_0_44_176
*779 FILLER_0_44_2
*780 FILLER_0_44_206
*781 FILLER_0_44_210
*782 FILLER_0_44_237
*783 FILLER_0_44_240
*784 FILLER_0_44_274
*785 FILLER_0_44_308
*786 FILLER_0_44_342
*787 FILLER_0_44_346
*788 FILLER_0_44_348
*789 FILLER_0_44_36
*790 FILLER_0_44_70
*791 FILLER_0_4_101
*792 FILLER_0_4_107
*793 FILLER_0_4_171
*794 FILLER_0_4_177
*795 FILLER_0_4_2
*796 FILLER_0_4_241
*797 FILLER_0_4_247
*798 FILLER_0_4_311
*799 FILLER_0_4_317
*800 FILLER_0_4_34
*801 FILLER_0_4_37
*802 FILLER_0_5_136
*803 FILLER_0_5_142
*804 FILLER_0_5_2
*805 FILLER_0_5_206
*806 FILLER_0_5_212
*807 FILLER_0_5_276
*808 FILLER_0_5_282
*809 FILLER_0_5_346
*810 FILLER_0_5_348
*811 FILLER_0_5_66
*812 FILLER_0_5_72
*813 FILLER_0_6_101
*814 FILLER_0_6_107
*815 FILLER_0_6_171
*816 FILLER_0_6_177
*817 FILLER_0_6_2
*818 FILLER_0_6_241
*819 FILLER_0_6_247
*820 FILLER_0_6_311
*821 FILLER_0_6_317
*822 FILLER_0_6_34
*823 FILLER_0_6_37
*824 FILLER_0_7_136
*825 FILLER_0_7_142
*826 FILLER_0_7_2
*827 FILLER_0_7_206
*828 FILLER_0_7_212
*829 FILLER_0_7_276
*830 FILLER_0_7_282
*831 FILLER_0_7_346
*832 FILLER_0_7_348
*833 FILLER_0_7_66
*834 FILLER_0_7_72
*835 FILLER_0_8_101
*836 FILLER_0_8_107
*837 FILLER_0_8_171
*838 FILLER_0_8_177
*839 FILLER_0_8_2
*840 FILLER_0_8_241
*841 FILLER_0_8_247
*842 FILLER_0_8_311
*843 FILLER_0_8_317
*844 FILLER_0_8_34
*845 FILLER_0_8_37
*846 FILLER_0_9_136
*847 FILLER_0_9_142
*848 FILLER_0_9_2
*849 FILLER_0_9_206
*850 FILLER_0_9_212
*851 FILLER_0_9_276
*852 FILLER_0_9_282
*853 FILLER_0_9_346
*854 FILLER_0_9_348
*855 FILLER_0_9_66
*856 FILLER_0_9_72
*857 PHY_EDGE_ROW_0_Left_45
*858 PHY_EDGE_ROW_0_Right_0
*859 PHY_EDGE_ROW_10_Left_55
*860 PHY_EDGE_ROW_10_Right_10
*861 PHY_EDGE_ROW_11_Left_56
*862 PHY_EDGE_ROW_11_Right_11
*863 PHY_EDGE_ROW_12_Left_57
*864 PHY_EDGE_ROW_12_Right_12
*865 PHY_EDGE_ROW_13_Left_58
*866 PHY_EDGE_ROW_13_Right_13
*867 PHY_EDGE_ROW_14_Left_59
*868 PHY_EDGE_ROW_14_Right_14
*869 PHY_EDGE_ROW_15_Left_60
*870 PHY_EDGE_ROW_15_Right_15
*871 PHY_EDGE_ROW_16_Left_61
*872 PHY_EDGE_ROW_16_Right_16
*873 PHY_EDGE_ROW_17_Left_62
*874 PHY_EDGE_ROW_17_Right_17
*875 PHY_EDGE_ROW_18_Left_63
*876 PHY_EDGE_ROW_18_Right_18
*877 PHY_EDGE_ROW_19_Left_64
*878 PHY_EDGE_ROW_19_Right_19
*879 PHY_EDGE_ROW_1_Left_46
*880 PHY_EDGE_ROW_1_Right_1
*881 PHY_EDGE_ROW_20_Left_65
*882 PHY_EDGE_ROW_20_Right_20
*883 PHY_EDGE_ROW_21_Left_66
*884 PHY_EDGE_ROW_21_Right_21
*885 PHY_EDGE_ROW_22_Left_67
*886 PHY_EDGE_ROW_22_Right_22
*887 PHY_EDGE_ROW_23_Left_68
*888 PHY_EDGE_ROW_23_Right_23
*889 PHY_EDGE_ROW_24_Left_69
*890 PHY_EDGE_ROW_24_Right_24
*891 PHY_EDGE_ROW_25_Left_70
*892 PHY_EDGE_ROW_25_Right_25
*893 PHY_EDGE_ROW_26_Left_71
*894 PHY_EDGE_ROW_26_Right_26
*895 PHY_EDGE_ROW_27_Left_72
*896 PHY_EDGE_ROW_27_Right_27
*897 PHY_EDGE_ROW_28_Left_73
*898 PHY_EDGE_ROW_28_Right_28
*899 PHY_EDGE_ROW_29_Left_74
*900 PHY_EDGE_ROW_29_Right_29
*901 PHY_EDGE_ROW_2_Left_47
*902 PHY_EDGE_ROW_2_Right_2
*903 PHY_EDGE_ROW_30_Left_75
*904 PHY_EDGE_ROW_30_Right_30
*905 PHY_EDGE_ROW_31_Left_76
*906 PHY_EDGE_ROW_31_Right_31
*907 PHY_EDGE_ROW_32_Left_77
*908 PHY_EDGE_ROW_32_Right_32
*909 PHY_EDGE_ROW_33_Left_78
*910 PHY_EDGE_ROW_33_Right_33
*911 PHY_EDGE_ROW_34_Left_79
*912 PHY_EDGE_ROW_34_Right_34
*913 PHY_EDGE_ROW_35_Left_80
*914 PHY_EDGE_ROW_35_Right_35
*915 PHY_EDGE_ROW_36_Left_81
*916 PHY_EDGE_ROW_36_Right_36
*917 PHY_EDGE_ROW_37_Left_82
*918 PHY_EDGE_ROW_37_Right_37
*919 PHY_EDGE_ROW_38_Left_83
*920 PHY_EDGE_ROW_38_Right_38
*921 PHY_EDGE_ROW_39_Left_84
*922 PHY_EDGE_ROW_39_Right_39
*923 PHY_EDGE_ROW_3_Left_48
*924 PHY_EDGE_ROW_3_Right_3
*925 PHY_EDGE_ROW_40_Left_85
*926 PHY_EDGE_ROW_40_Right_40
*927 PHY_EDGE_ROW_41_Left_86
*928 PHY_EDGE_ROW_41_Right_41
*929 PHY_EDGE_ROW_42_Left_87
*930 PHY_EDGE_ROW_42_Right_42
*931 PHY_EDGE_ROW_43_Left_88
*932 PHY_EDGE_ROW_43_Right_43
*933 PHY_EDGE_ROW_44_Left_89
*934 PHY_EDGE_ROW_44_Right_44
*935 PHY_EDGE_ROW_4_Left_49
*936 PHY_EDGE_ROW_4_Right_4
*937 PHY_EDGE_ROW_5_Left_50
*938 PHY_EDGE_ROW_5_Right_5
*939 PHY_EDGE_ROW_6_Left_51
*940 PHY_EDGE_ROW_6_Right_6
*941 PHY_EDGE_ROW_7_Left_52
*942 PHY_EDGE_ROW_7_Right_7
*943 PHY_EDGE_ROW_8_Left_53
*944 PHY_EDGE_ROW_8_Right_8
*945 PHY_EDGE_ROW_9_Left_54
*946 PHY_EDGE_ROW_9_Right_9
*947 TAP_TAPCELL_ROW_0_90
*948 TAP_TAPCELL_ROW_0_91
*949 TAP_TAPCELL_ROW_0_92
*950 TAP_TAPCELL_ROW_0_93
*951 TAP_TAPCELL_ROW_0_94
*952 TAP_TAPCELL_ROW_0_95
*953 TAP_TAPCELL_ROW_0_96
*954 TAP_TAPCELL_ROW_0_97
*955 TAP_TAPCELL_ROW_0_98
*956 TAP_TAPCELL_ROW_0_99
*957 TAP_TAPCELL_ROW_10_140
*958 TAP_TAPCELL_ROW_10_141
*959 TAP_TAPCELL_ROW_10_142
*960 TAP_TAPCELL_ROW_10_143
*961 TAP_TAPCELL_ROW_10_144
*962 TAP_TAPCELL_ROW_11_145
*963 TAP_TAPCELL_ROW_11_146
*964 TAP_TAPCELL_ROW_11_147
*965 TAP_TAPCELL_ROW_11_148
*966 TAP_TAPCELL_ROW_12_149
*967 TAP_TAPCELL_ROW_12_150
*968 TAP_TAPCELL_ROW_12_151
*969 TAP_TAPCELL_ROW_12_152
*970 TAP_TAPCELL_ROW_12_153
*971 TAP_TAPCELL_ROW_13_154
*972 TAP_TAPCELL_ROW_13_155
*973 TAP_TAPCELL_ROW_13_156
*974 TAP_TAPCELL_ROW_13_157
*975 TAP_TAPCELL_ROW_14_158
*976 TAP_TAPCELL_ROW_14_159
*977 TAP_TAPCELL_ROW_14_160
*978 TAP_TAPCELL_ROW_14_161
*979 TAP_TAPCELL_ROW_14_162
*980 TAP_TAPCELL_ROW_15_163
*981 TAP_TAPCELL_ROW_15_164
*982 TAP_TAPCELL_ROW_15_165
*983 TAP_TAPCELL_ROW_15_166
*984 TAP_TAPCELL_ROW_16_167
*985 TAP_TAPCELL_ROW_16_168
*986 TAP_TAPCELL_ROW_16_169
*987 TAP_TAPCELL_ROW_16_170
*988 TAP_TAPCELL_ROW_16_171
*989 TAP_TAPCELL_ROW_17_172
*990 TAP_TAPCELL_ROW_17_173
*991 TAP_TAPCELL_ROW_17_174
*992 TAP_TAPCELL_ROW_17_175
*993 TAP_TAPCELL_ROW_18_176
*994 TAP_TAPCELL_ROW_18_177
*995 TAP_TAPCELL_ROW_18_178
*996 TAP_TAPCELL_ROW_18_179
*997 TAP_TAPCELL_ROW_18_180
*998 TAP_TAPCELL_ROW_19_181
*999 TAP_TAPCELL_ROW_19_182
*1000 TAP_TAPCELL_ROW_19_183
*1001 TAP_TAPCELL_ROW_19_184
*1002 TAP_TAPCELL_ROW_1_100
*1003 TAP_TAPCELL_ROW_1_101
*1004 TAP_TAPCELL_ROW_1_102
*1005 TAP_TAPCELL_ROW_1_103
*1006 TAP_TAPCELL_ROW_20_185
*1007 TAP_TAPCELL_ROW_20_186
*1008 TAP_TAPCELL_ROW_20_187
*1009 TAP_TAPCELL_ROW_20_188
*1010 TAP_TAPCELL_ROW_20_189
*1011 TAP_TAPCELL_ROW_21_190
*1012 TAP_TAPCELL_ROW_21_191
*1013 TAP_TAPCELL_ROW_21_192
*1014 TAP_TAPCELL_ROW_21_193
*1015 TAP_TAPCELL_ROW_22_194
*1016 TAP_TAPCELL_ROW_22_195
*1017 TAP_TAPCELL_ROW_22_196
*1018 TAP_TAPCELL_ROW_22_197
*1019 TAP_TAPCELL_ROW_22_198
*1020 TAP_TAPCELL_ROW_23_199
*1021 TAP_TAPCELL_ROW_23_200
*1022 TAP_TAPCELL_ROW_23_201
*1023 TAP_TAPCELL_ROW_23_202
*1024 TAP_TAPCELL_ROW_24_203
*1025 TAP_TAPCELL_ROW_24_204
*1026 TAP_TAPCELL_ROW_24_205
*1027 TAP_TAPCELL_ROW_24_206
*1028 TAP_TAPCELL_ROW_24_207
*1029 TAP_TAPCELL_ROW_25_208
*1030 TAP_TAPCELL_ROW_25_209
*1031 TAP_TAPCELL_ROW_25_210
*1032 TAP_TAPCELL_ROW_25_211
*1033 TAP_TAPCELL_ROW_26_212
*1034 TAP_TAPCELL_ROW_26_213
*1035 TAP_TAPCELL_ROW_26_214
*1036 TAP_TAPCELL_ROW_26_215
*1037 TAP_TAPCELL_ROW_26_216
*1038 TAP_TAPCELL_ROW_27_217
*1039 TAP_TAPCELL_ROW_27_218
*1040 TAP_TAPCELL_ROW_27_219
*1041 TAP_TAPCELL_ROW_27_220
*1042 TAP_TAPCELL_ROW_28_221
*1043 TAP_TAPCELL_ROW_28_222
*1044 TAP_TAPCELL_ROW_28_223
*1045 TAP_TAPCELL_ROW_28_224
*1046 TAP_TAPCELL_ROW_28_225
*1047 TAP_TAPCELL_ROW_29_226
*1048 TAP_TAPCELL_ROW_29_227
*1049 TAP_TAPCELL_ROW_29_228
*1050 TAP_TAPCELL_ROW_29_229
*1051 TAP_TAPCELL_ROW_2_104
*1052 TAP_TAPCELL_ROW_2_105
*1053 TAP_TAPCELL_ROW_2_106
*1054 TAP_TAPCELL_ROW_2_107
*1055 TAP_TAPCELL_ROW_2_108
*1056 TAP_TAPCELL_ROW_30_230
*1057 TAP_TAPCELL_ROW_30_231
*1058 TAP_TAPCELL_ROW_30_232
*1059 TAP_TAPCELL_ROW_30_233
*1060 TAP_TAPCELL_ROW_30_234
*1061 TAP_TAPCELL_ROW_31_235
*1062 TAP_TAPCELL_ROW_31_236
*1063 TAP_TAPCELL_ROW_31_237
*1064 TAP_TAPCELL_ROW_31_238
*1065 TAP_TAPCELL_ROW_32_239
*1066 TAP_TAPCELL_ROW_32_240
*1067 TAP_TAPCELL_ROW_32_241
*1068 TAP_TAPCELL_ROW_32_242
*1069 TAP_TAPCELL_ROW_32_243
*1070 TAP_TAPCELL_ROW_33_244
*1071 TAP_TAPCELL_ROW_33_245
*1072 TAP_TAPCELL_ROW_33_246
*1073 TAP_TAPCELL_ROW_33_247
*1074 TAP_TAPCELL_ROW_34_248
*1075 TAP_TAPCELL_ROW_34_249
*1076 TAP_TAPCELL_ROW_34_250
*1077 TAP_TAPCELL_ROW_34_251
*1078 TAP_TAPCELL_ROW_34_252
*1079 TAP_TAPCELL_ROW_35_253
*1080 TAP_TAPCELL_ROW_35_254
*1081 TAP_TAPCELL_ROW_35_255
*1082 TAP_TAPCELL_ROW_35_256
*1083 TAP_TAPCELL_ROW_36_257
*1084 TAP_TAPCELL_ROW_36_258
*1085 TAP_TAPCELL_ROW_36_259
*1086 TAP_TAPCELL_ROW_36_260
*1087 TAP_TAPCELL_ROW_36_261
*1088 TAP_TAPCELL_ROW_37_262
*1089 TAP_TAPCELL_ROW_37_263
*1090 TAP_TAPCELL_ROW_37_264
*1091 TAP_TAPCELL_ROW_37_265
*1092 TAP_TAPCELL_ROW_38_266
*1093 TAP_TAPCELL_ROW_38_267
*1094 TAP_TAPCELL_ROW_38_268
*1095 TAP_TAPCELL_ROW_38_269
*1096 TAP_TAPCELL_ROW_38_270
*1097 TAP_TAPCELL_ROW_39_271
*1098 TAP_TAPCELL_ROW_39_272
*1099 TAP_TAPCELL_ROW_39_273
*1100 TAP_TAPCELL_ROW_39_274
*1101 TAP_TAPCELL_ROW_3_109
*1102 TAP_TAPCELL_ROW_3_110
*1103 TAP_TAPCELL_ROW_3_111
*1104 TAP_TAPCELL_ROW_3_112
*1105 TAP_TAPCELL_ROW_40_275
*1106 TAP_TAPCELL_ROW_40_276
*1107 TAP_TAPCELL_ROW_40_277
*1108 TAP_TAPCELL_ROW_40_278
*1109 TAP_TAPCELL_ROW_40_279
*1110 TAP_TAPCELL_ROW_41_280
*1111 TAP_TAPCELL_ROW_41_281
*1112 TAP_TAPCELL_ROW_41_282
*1113 TAP_TAPCELL_ROW_41_283
*1114 TAP_TAPCELL_ROW_42_284
*1115 TAP_TAPCELL_ROW_42_285
*1116 TAP_TAPCELL_ROW_42_286
*1117 TAP_TAPCELL_ROW_42_287
*1118 TAP_TAPCELL_ROW_42_288
*1119 TAP_TAPCELL_ROW_43_289
*1120 TAP_TAPCELL_ROW_43_290
*1121 TAP_TAPCELL_ROW_43_291
*1122 TAP_TAPCELL_ROW_43_292
*1123 TAP_TAPCELL_ROW_44_293
*1124 TAP_TAPCELL_ROW_44_294
*1125 TAP_TAPCELL_ROW_44_295
*1126 TAP_TAPCELL_ROW_44_296
*1127 TAP_TAPCELL_ROW_44_297
*1128 TAP_TAPCELL_ROW_44_298
*1129 TAP_TAPCELL_ROW_44_299
*1130 TAP_TAPCELL_ROW_44_300
*1131 TAP_TAPCELL_ROW_44_301
*1132 TAP_TAPCELL_ROW_44_302
*1133 TAP_TAPCELL_ROW_4_113
*1134 TAP_TAPCELL_ROW_4_114
*1135 TAP_TAPCELL_ROW_4_115
*1136 TAP_TAPCELL_ROW_4_116
*1137 TAP_TAPCELL_ROW_4_117
*1138 TAP_TAPCELL_ROW_5_118
*1139 TAP_TAPCELL_ROW_5_119
*1140 TAP_TAPCELL_ROW_5_120
*1141 TAP_TAPCELL_ROW_5_121
*1142 TAP_TAPCELL_ROW_6_122
*1143 TAP_TAPCELL_ROW_6_123
*1144 TAP_TAPCELL_ROW_6_124
*1145 TAP_TAPCELL_ROW_6_125
*1146 TAP_TAPCELL_ROW_6_126
*1147 TAP_TAPCELL_ROW_7_127
*1148 TAP_TAPCELL_ROW_7_128
*1149 TAP_TAPCELL_ROW_7_129
*1150 TAP_TAPCELL_ROW_7_130
*1151 TAP_TAPCELL_ROW_8_131
*1152 TAP_TAPCELL_ROW_8_132
*1153 TAP_TAPCELL_ROW_8_133
*1154 TAP_TAPCELL_ROW_8_134
*1155 TAP_TAPCELL_ROW_8_135
*1156 TAP_TAPCELL_ROW_9_136
*1157 TAP_TAPCELL_ROW_9_137
*1158 TAP_TAPCELL_ROW_9_138
*1159 TAP_TAPCELL_ROW_9_139
*1160 _094_
*1161 _095_
*1162 _096_
*1163 _097_
*1164 _098_
*1165 _099_
*1166 _100_
*1167 _101_
*1168 _102_
*1169 _103_
*1170 _104_
*1171 _105_
*1172 _106_
*1173 _107_
*1174 _108_
*1175 _109_
*1176 _110_
*1177 _111_
*1178 _112_
*1179 _113_
*1180 _114_
*1181 _115_
*1182 _116_
*1183 _117_
*1184 _118_
*1185 _119_
*1186 _120_
*1187 _121_
*1188 _122_
*1189 _123_
*1190 _124_
*1191 _125_
*1192 _126_
*1193 _127_
*1194 _128_
*1195 _129_
*1196 _130_
*1197 _131_
*1198 _132_
*1199 _133_
*1200 _134_
*1201 _135_
*1202 _136_
*1203 _137_
*1204 _138_
*1205 _139_
*1206 _140_
*1207 _141_
*1208 _142_
*1209 _143_
*1210 _144_
*1211 _145_
*1212 _146_
*1213 _147_
*1214 _148_
*1215 _149_
*1216 _150_
*1217 _151_
*1218 _152_
*1219 _153_
*1220 _154_
*1221 _155_
*1222 _156_
*1223 _157_
*1224 _158_
*1225 _159_
*1226 _160_
*1227 _161_
*1228 _162_
*1229 _163_
*1230 _164_
*1231 _165_
*1232 _166_
*1233 _167_
*1234 _168_
*1235 _169_
*1236 _170_
*1237 _171_
*1238 _172_
*1239 _173_
*1240 _174_
*1241 _175_
*1242 _176_
*1243 _177_
*1244 _178_
*1245 _179_
*1246 _180_
*1247 _181_
*1248 _182_
*1249 _183_
*1250 _184_
*1251 _185_
*1252 _186_
*1253 _187_
*1254 _188_
*1255 _189_
*1256 _190_
*1257 _191_
*1258 _192_
*1259 _193_
*1260 _194_
*1261 _195_
*1262 _196_
*1263 _197_
*1264 _198_
*1265 _199_
*1266 _200_
*1267 _201_
*1268 _202_
*1269 _203_
*1270 _204_
*1271 _205_
*1272 _206_
*1273 _207_
*1274 _208_
*1275 _209_
*1276 _210_
*1277 _212_
*1278 _213_
*1279 _214_
*1280 _215_
*1281 _216_
*1282 _217_
*1283 clkbuf_0_clk
*1284 clkbuf_1_0__f_clk
*1285 clkbuf_1_1__f_clk
*1286 ita54_26
*1287 output1
*1288 output10
*1289 output11
*1290 output12
*1291 output13
*1292 output14
*1293 output15
*1294 output16
*1295 output17
*1296 output18
*1297 output19
*1298 output2
*1299 output20
*1300 output21
*1301 output22
*1302 output23
*1303 output24
*1304 output25
*1305 output3
*1306 output4
*1307 output5
*1308 output6
*1309 output7
*1310 output8
*1311 output9

*PORTS
clk I
segm[0] O
segm[10] O
segm[11] O
segm[12] O
segm[13] O
segm[1] O
segm[2] O
segm[3] O
segm[4] O
segm[5] O
segm[6] O
segm[7] O
segm[8] O
segm[9] O
sel[0] O
sel[10] O
sel[11] O
sel[1] O
sel[2] O
sel[3] O
sel[4] O
sel[5] O
sel[6] O
sel[7] O
sel[8] O
sel[9] O

*D_NET *1 0.0121606
*CONN
*P clk I
*I *168:I I *D gf180mcu_fd_sc_mcu7t5v0__antenna
*I *1283:I I *D gf180mcu_fd_sc_mcu7t5v0__clkbuf_16
*CAP
1 clk 0.00460054
2 *168:I 0
3 *1283:I 3.71387e-05
4 *1:15 3.71387e-05
5 *1:13 0.00460054
6 *1283:I *1196:A1 0.000410048
7 *1283:I *1201:A1 0.000410048
8 *1:13 sel[5] 6.71673e-05
9 *1:13 *1161:I 3.76505e-05
10 *1:13 *1198:A2 0.000287376
11 *1:13 *1232:A1 0.00013917
12 *1:13 *1233:B 0
13 *1:13 *1257:D 0.000105389
14 *1:13 *1294:I 0.000488913
15 *1:13 *69:16 0.000728829
16 *1:13 *91:10 0.000107703
17 *1:13 *92:23 0
18 *1:13 *112:12 2.54605e-05
19 *1:13 *125:59 7.75365e-05
20 *1:13 *129:14 0
*RES
1 clk *1:13 47.948 
2 *1:13 *1:15 4.5 
3 *1:15 *1283:I 5.644 
4 *1:15 *168:I 4.5 
*END

*D_NET *2 0.000650984
*CONN
*P segm[0] O
*I *1286:ZN O *D gf180mcu_fd_sc_mcu7t5v0__tiel
*CAP
1 segm[0] 0.000325492
2 *1286:ZN 0.000325492
*RES
1 *1286:ZN segm[0] 11.652 
*END

*D_NET *3 0.00197604
*CONN
*P segm[10] O
*I *1287:Z O *D gf180mcu_fd_sc_mcu7t5v0__buf_8
*CAP
1 segm[10] 0.000988018
2 *1287:Z 0.000988018
*RES
1 *1287:Z segm[10] 21.248 
*END

*D_NET *4 0.000704164
*CONN
*P segm[11] O
*I *1298:Z O *D gf180mcu_fd_sc_mcu7t5v0__buf_8
*CAP
1 segm[11] 0.000283088
2 *1298:Z 0.000283088
3 segm[11] segm[12] 6.8994e-05
4 segm[11] sel[8] 6.8994e-05
*RES
1 *1298:Z segm[11] 11.86 
*END

*D_NET *5 0.000650092
*CONN
*P segm[12] O
*I *1305:Z O *D gf180mcu_fd_sc_mcu7t5v0__buf_8
*CAP
1 segm[12] 0.000290549
2 *1305:Z 0.000290549
3 segm[11] segm[12] 6.8994e-05
*RES
1 *1305:Z segm[12] 11.652 
*END

*D_NET *6 0.00145108
*CONN
*P segm[13] O
*I *1306:Z O *D gf180mcu_fd_sc_mcu7t5v0__buf_8
*CAP
1 segm[13] 0.000725541
2 *1306:Z 0.000725541
*RES
1 *1306:Z segm[13] 10.376 
*END

*D_NET *7 0.00107081
*CONN
*P segm[1] O
*I *1307:Z O *D gf180mcu_fd_sc_mcu7t5v0__buf_8
*CAP
1 segm[1] 0.000500908
2 *1307:Z 0.000500908
3 segm[1] segm[4] 6.89904e-05
*RES
1 *1307:Z segm[1] 13.108 
*END

*D_NET *8 0.00123831
*CONN
*P segm[2] O
*I *1308:Z O *D gf180mcu_fd_sc_mcu7t5v0__buf_8
*CAP
1 segm[2] 0.000487399
2 *1308:Z 0.000487399
3 segm[2] sel[3] 0.000263516
*RES
1 *1308:Z segm[2] 13.108 
*END

*D_NET *9 0.00106593
*CONN
*P segm[3] O
*I *1309:Z O *D gf180mcu_fd_sc_mcu7t5v0__buf_8
*CAP
1 segm[3] 0.000450844
2 *1309:Z 0.000450844
3 segm[3] segm[6] 6.0656e-05
4 segm[3] sel[4] 0.00010359
*RES
1 *1309:Z segm[3] 12.692 
*END

*D_NET *10 0.000884746
*CONN
*P segm[4] O
*I *1310:Z O *D gf180mcu_fd_sc_mcu7t5v0__buf_8
*CAP
1 segm[4] 0.000354573
2 *1310:Z 0.000354573
3 segm[4] sel[5] 0.000106609
4 segm[1] segm[4] 6.89904e-05
*RES
1 *1310:Z segm[4] 12.276 
*END

*D_NET *11 0.00244967
*CONN
*P segm[5] O
*I *1311:Z O *D gf180mcu_fd_sc_mcu7t5v0__buf_8
*CAP
1 segm[5] 0.00122483
2 *1311:Z 0.00122483