*SPEF "ieee 1481-1999"
*DESIGN "ita58"
*DATE "11:11:11 Fri 11 11, 1111"
*VENDOR "OpenRCX"
*PROGRAM "Parallel Extraction"
*VERSION "1.0"
*DESIGN_FLOW "NAME_SCOPE LOCAL" "PIN_CAP NONE"
*DIVIDER /
*DELIMITER :
*BUS_DELIMITER []
*T_UNIT 1 NS
*C_UNIT 1 PF
*R_UNIT 1 OHM
*L_UNIT 1 HENRY

*NAME_MAP
*1 clk
*2 net25
*3 segm[10]
*4 segm[11]
*5 segm[12]
*6 segm[13]
*7 segm[1]
*8 segm[2]
*9 net26
*10 segm[4]
*11 segm[5]
*12 segm[6]
*13 segm[7]
*14 segm[8]
*15 segm[9]
*16 sel[0]
*17 sel[10]
*18 sel[11]
*19 sel[1]
*20 sel[2]
*21 sel[3]
*22 sel[4]
*23 sel[5]
*24 sel[6]
*25 sel[7]
*26 sel[8]
*27 sel[9]
*30 _000_
*31 _001_
*32 _002_
*33 _003_
*34 _004_
*35 _005_
*36 _006_
*37 _007_
*38 _008_
*39 _009_
*40 _010_
*41 _011_
*42 _012_
*43 _013_
*44 _014_
*45 _015_
*46 _016_
*47 _017_
*48 _018_
*49 _019_
*50 _020_
*51 _021_
*52 _022_
*53 _023_
*54 _024_
*55 _025_
*56 _026_
*57 _027_
*58 _028_
*59 _029_
*60 _030_
*61 _031_
*62 _032_
*63 _033_
*64 _034_
*65 _035_
*66 _036_
*67 _037_
*68 _038_
*69 _039_
*70 _040_
*71 _041_
*72 _042_
*73 _043_
*74 _044_
*75 _045_
*76 _046_
*77 _047_
*78 _048_
*79 _049_
*80 _050_
*81 _051_
*82 _052_
*83 _053_
*84 _054_
*85 _055_
*86 _056_
*87 _057_
*88 _058_
*89 _059_
*90 _060_
*91 _061_
*92 _062_
*93 _063_
*94 _064_
*95 _065_
*96 _066_
*97 _067_
*98 _068_
*99 _069_
*100 _070_
*101 _071_
*102 _072_
*103 _073_
*104 _074_
*105 _075_
*106 _076_
*107 _077_
*108 _078_
*109 _079_
*110 _080_
*111 _081_
*112 _082_
*113 _083_
*114 _084_
*115 _085_
*116 _086_
*117 _087_
*118 _088_
*119 _089_
*120 _090_
*121 _091_
*122 _092_
*123 _093_
*124 _094_
*125 _095_
*126 _096_
*127 _097_
*128 _098_
*129 _099_
*130 _100_
*131 _101_
*132 _102_
*133 _103_
*134 _104_
*135 clknet_0_clk
*136 clknet_1_0__leaf_clk
*137 clknet_1_1__leaf_clk
*138 dut58\.count\[0\]
*139 dut58\.count\[1\]
*140 dut58\.count\[2\]
*141 dut58\.count\[3\]
*142 net1
*143 net10
*144 net11
*145 net12
*146 net13
*147 net14
*148 net15
*149 net16
*150 net17
*151 net18
*152 net19
*153 net2
*154 net20
*155 net21
*156 net22
*157 net23
*158 net24
*159 net3
*160 net4
*161 net5
*162 net6
*163 net7
*164 net8
*165 net9
*166 ANTENNA__148__A2
*167 ANTENNA__149__A2
*168 ANTENNA__170__B
*169 ANTENNA__189__A2
*170 ANTENNA__210__CLK
*171 ANTENNA__211__CLK
*172 ANTENNA__212__CLK
*173 ANTENNA__213__CLK
*174 ANTENNA__214__CLK
*175 ANTENNA__215__CLK
*176 ANTENNA__216__CLK
*177 ANTENNA__217__CLK
*178 ANTENNA__218__CLK
*179 ANTENNA__219__CLK
*180 ANTENNA__220__CLK
*181 ANTENNA__221__CLK
*182 ANTENNA__222__CLK
*183 ANTENNA__223__CLK
*184 ANTENNA__224__CLK
*185 ANTENNA__225__CLK
*186 ANTENNA__226__CLK
*187 ANTENNA__227__CLK
*188 ANTENNA__228__CLK
*189 ANTENNA__229__CLK
*190 ANTENNA__230__CLK
*191 ANTENNA__231__CLK
*192 ANTENNA__232__CLK
*193 ANTENNA__233__CLK
*194 ANTENNA__234__CLK
*195 ANTENNA_clkbuf_0_clk_I
*196 FILLER_0_0_104
*197 FILLER_0_0_138
*198 FILLER_0_0_172
*199 FILLER_0_0_176
*200 FILLER_0_0_2
*201 FILLER_0_0_206
*202 FILLER_0_0_210
*203 FILLER_0_0_237
*204 FILLER_0_0_240
*205 FILLER_0_0_274
*206 FILLER_0_0_308
*207 FILLER_0_0_342
*208 FILLER_0_0_346
*209 FILLER_0_0_348
*210 FILLER_0_0_36
*211 FILLER_0_0_70
*212 FILLER_0_10_101
*213 FILLER_0_10_107
*214 FILLER_0_10_171
*215 FILLER_0_10_177
*216 FILLER_0_10_2
*217 FILLER_0_10_241
*218 FILLER_0_10_247
*219 FILLER_0_10_311
*220 FILLER_0_10_317
*221 FILLER_0_10_34
*222 FILLER_0_10_37
*223 FILLER_0_11_136
*224 FILLER_0_11_142
*225 FILLER_0_11_2
*226 FILLER_0_11_206
*227 FILLER_0_11_212
*228 FILLER_0_11_276
*229 FILLER_0_11_282
*230 FILLER_0_11_346
*231 FILLER_0_11_348
*232 FILLER_0_11_66
*233 FILLER_0_11_72
*234 FILLER_0_12_101
*235 FILLER_0_12_107
*236 FILLER_0_12_171
*237 FILLER_0_12_177
*238 FILLER_0_12_185
*239 FILLER_0_12_189
*240 FILLER_0_12_2
*241 FILLER_0_12_221
*242 FILLER_0_12_237
*243 FILLER_0_12_247
*244 FILLER_0_12_311
*245 FILLER_0_12_317
*246 FILLER_0_12_34
*247 FILLER_0_12_37
*248 FILLER_0_13_104
*249 FILLER_0_13_108
*250 FILLER_0_13_110
*251 FILLER_0_13_142
*252 FILLER_0_13_146
*253 FILLER_0_13_154
*254 FILLER_0_13_187
*255 FILLER_0_13_189
*256 FILLER_0_13_198
*257 FILLER_0_13_2
*258 FILLER_0_13_206
*259 FILLER_0_13_218
*260 FILLER_0_13_250
*261 FILLER_0_13_266
*262 FILLER_0_13_274
*263 FILLER_0_13_278
*264 FILLER_0_13_282
*265 FILLER_0_13_346
*266 FILLER_0_13_348
*267 FILLER_0_13_66
*268 FILLER_0_13_72
*269 FILLER_0_14_101
*270 FILLER_0_14_107
*271 FILLER_0_14_115
*272 FILLER_0_14_154
*273 FILLER_0_14_158
*274 FILLER_0_14_174
*275 FILLER_0_14_177
*276 FILLER_0_14_2
*277 FILLER_0_14_243
*278 FILLER_0_14_247
*279 FILLER_0_14_311
*280 FILLER_0_14_317
*281 FILLER_0_14_34
*282 FILLER_0_14_37
*283 FILLER_0_15_104
*284 FILLER_0_15_120
*285 FILLER_0_15_124
*286 FILLER_0_15_150
*287 FILLER_0_15_158
*288 FILLER_0_15_175
*289 FILLER_0_15_182
*290 FILLER_0_15_190
*291 FILLER_0_15_2
*292 FILLER_0_15_208
*293 FILLER_0_15_212
*294 FILLER_0_15_216
*295 FILLER_0_15_220
*296 FILLER_0_15_252
*297 FILLER_0_15_268
*298 FILLER_0_15_276
*299 FILLER_0_15_282
*300 FILLER_0_15_346
*301 FILLER_0_15_348
*302 FILLER_0_15_66
*303 FILLER_0_15_72
*304 FILLER_0_16_101
*305 FILLER_0_16_136
*306 FILLER_0_16_140
*307 FILLER_0_16_144
*308 FILLER_0_16_177
*309 FILLER_0_16_185
*310 FILLER_0_16_189
*311 FILLER_0_16_197
*312 FILLER_0_16_2
*313 FILLER_0_16_201
*314 FILLER_0_16_208
*315 FILLER_0_16_240
*316 FILLER_0_16_244
*317 FILLER_0_16_247
*318 FILLER_0_16_311
*319 FILLER_0_16_317
*320 FILLER_0_16_34
*321 FILLER_0_16_37
*322 FILLER_0_17_104
*323 FILLER_0_17_120
*324 FILLER_0_17_122
*325 FILLER_0_17_138
*326 FILLER_0_17_142
*327 FILLER_0_17_150
*328 FILLER_0_17_154
*329 FILLER_0_17_2
*330 FILLER_0_17_206
*331 FILLER_0_17_212
*332 FILLER_0_17_228
*333 FILLER_0_17_232
*334 FILLER_0_17_239
*335 FILLER_0_17_271
*336 FILLER_0_17_279
*337 FILLER_0_17_282
*338 FILLER_0_17_346
*339 FILLER_0_17_348
*340 FILLER_0_17_66
*341 FILLER_0_17_72
*342 FILLER_0_18_101
*343 FILLER_0_18_107
*344 FILLER_0_18_123
*345 FILLER_0_18_135
*346 FILLER_0_18_151
*347 FILLER_0_18_155
*348 FILLER_0_18_172
*349 FILLER_0_18_174
*350 FILLER_0_18_177
*351 FILLER_0_18_185
*352 FILLER_0_18_193
*353 FILLER_0_18_201
*354 FILLER_0_18_205
*355 FILLER_0_18_208
*356 FILLER_0_18_212
*357 FILLER_0_18_242
*358 FILLER_0_18_244
*359 FILLER_0_18_247
*360 FILLER_0_18_28
*361 FILLER_0_18_311
*362 FILLER_0_18_317
*363 FILLER_0_18_32
*364 FILLER_0_18_321
*365 FILLER_0_18_34
*366 FILLER_0_18_37
*367 FILLER_0_19_123
*368 FILLER_0_19_127
*369 FILLER_0_19_131
*370 FILLER_0_19_138
*371 FILLER_0_19_142
*372 FILLER_0_19_144
*373 FILLER_0_19_159
*374 FILLER_0_19_161
*375 FILLER_0_19_174
*376 FILLER_0_19_178
*377 FILLER_0_19_180
*378 FILLER_0_19_2
*379 FILLER_0_19_225
*380 FILLER_0_19_229
*381 FILLER_0_19_261
*382 FILLER_0_19_277
*383 FILLER_0_19_279
*384 FILLER_0_19_282
*385 FILLER_0_19_314
*386 FILLER_0_19_322
*387 FILLER_0_19_66
*388 FILLER_0_19_72
*389 FILLER_0_19_88
*390 FILLER_0_19_92
*391 FILLER_0_1_136
*392 FILLER_0_1_168
*393 FILLER_0_1_172
*394 FILLER_0_1_174
*395 FILLER_0_1_2
*396 FILLER_0_1_201
*397 FILLER_0_1_209
*398 FILLER_0_1_212
*399 FILLER_0_1_216
*400 FILLER_0_1_243
*401 FILLER_0_1_275
*402 FILLER_0_1_279
*403 FILLER_0_1_282
*404 FILLER_0_1_346
*405 FILLER_0_1_348
*406 FILLER_0_1_66
*407 FILLER_0_1_72
*408 FILLER_0_20_107
*409 FILLER_0_20_111
*410 FILLER_0_20_131
*411 FILLER_0_20_135
*412 FILLER_0_20_152
*413 FILLER_0_20_173
*414 FILLER_0_20_177
*415 FILLER_0_20_201
*416 FILLER_0_20_219
*417 FILLER_0_20_235
*418 FILLER_0_20_243
*419 FILLER_0_20_247
*420 FILLER_0_20_28
*421 FILLER_0_20_311
*422 FILLER_0_20_317
*423 FILLER_0_20_32
*424 FILLER_0_20_321
*425 FILLER_0_20_34
*426 FILLER_0_20_37
*427 FILLER_0_20_69
*428 FILLER_0_20_73
*429 FILLER_0_20_75
*430 FILLER_0_21_104
*431 FILLER_0_21_108
*432 FILLER_0_21_110
*433 FILLER_0_21_117
*434 FILLER_0_21_119
*435 FILLER_0_21_131
*436 FILLER_0_21_139
*437 FILLER_0_21_148
*438 FILLER_0_21_186
*439 FILLER_0_21_208
*440 FILLER_0_21_212
*441 FILLER_0_21_232
*442 FILLER_0_21_264
*443 FILLER_0_21_28
*444 FILLER_0_21_282
*445 FILLER_0_21_314
*446 FILLER_0_21_322
*447 FILLER_0_21_60
*448 FILLER_0_21_68
*449 FILLER_0_21_72
*450 FILLER_0_21_88
*451 FILLER_0_21_96
*452 FILLER_0_22_101
*453 FILLER_0_22_107
*454 FILLER_0_22_115
*455 FILLER_0_22_132
*456 FILLER_0_22_136
*457 FILLER_0_22_138
*458 FILLER_0_22_173
*459 FILLER_0_22_2
*460 FILLER_0_22_208
*461 FILLER_0_22_212
*462 FILLER_0_22_253
*463 FILLER_0_22_285
*464 FILLER_0_22_301
*465 FILLER_0_22_309
*466 FILLER_0_22_313
*467 FILLER_0_22_317
*468 FILLER_0_22_321
*469 FILLER_0_22_34
*470 FILLER_0_22_37
*471 FILLER_0_23_111
*472 FILLER_0_23_115
*473 FILLER_0_23_117
*474 FILLER_0_23_142
*475 FILLER_0_23_159
*476 FILLER_0_23_2
*477 FILLER_0_23_221
*478 FILLER_0_23_253
*479 FILLER_0_23_269
*480 FILLER_0_23_277
*481 FILLER_0_23_279
*482 FILLER_0_23_282
*483 FILLER_0_23_314
*484 FILLER_0_23_330
*485 FILLER_0_23_338
*486 FILLER_0_23_342
*487 FILLER_0_23_344
*488 FILLER_0_23_66
*489 FILLER_0_23_72
*490 FILLER_0_23_80
*491 FILLER_0_24_101
*492 FILLER_0_24_107
*493 FILLER_0_24_111
*494 FILLER_0_24_115
*495 FILLER_0_24_131
*496 FILLER_0_24_139
*497 FILLER_0_24_163
*498 FILLER_0_24_177
*499 FILLER_0_24_226
*500 FILLER_0_24_242
*501 FILLER_0_24_244
*502 FILLER_0_24_247
*503 FILLER_0_24_28
*504 FILLER_0_24_311
*505 FILLER_0_24_317
*506 FILLER_0_24_32
*507 FILLER_0_24_34
*508 FILLER_0_24_37
*509 FILLER_0_25_113
*510 FILLER_0_25_119
*511 FILLER_0_25_121
*512 FILLER_0_25_133
*513 FILLER_0_25_137
*514 FILLER_0_25_139
*515 FILLER_0_25_142
*516 FILLER_0_25_144
*517 FILLER_0_25_159
*518 FILLER_0_25_161
*519 FILLER_0_25_186
*520 FILLER_0_25_2
*521 FILLER_0_25_209
*522 FILLER_0_25_212
*523 FILLER_0_25_243
*524 FILLER_0_25_275
*525 FILLER_0_25_279
*526 FILLER_0_25_282
*527 FILLER_0_25_346
*528 FILLER_0_25_348
*529 FILLER_0_25_66
*530 FILLER_0_25_72
*531 FILLER_0_25_80
*532 FILLER_0_26_101
*533 FILLER_0_26_136
*534 FILLER_0_26_143
*535 FILLER_0_26_147
*536 FILLER_0_26_163
*537 FILLER_0_26_165
*538 FILLER_0_26_189
*539 FILLER_0_26_202
*540 FILLER_0_26_212
*541 FILLER_0_26_216
*542 FILLER_0_26_220
*543 FILLER_0_26_227
*544 FILLER_0_26_243
*545 FILLER_0_26_247
*546 FILLER_0_26_28
*547 FILLER_0_26_311
*548 FILLER_0_26_317
*549 FILLER_0_26_32
*550 FILLER_0_26_34
*551 FILLER_0_26_37
*552 FILLER_0_27_136
*553 FILLER_0_27_142
*554 FILLER_0_27_156
*555 FILLER_0_27_2
*556 FILLER_0_27_212
*557 FILLER_0_27_214
*558 FILLER_0_27_246
*559 FILLER_0_27_278
*560 FILLER_0_27_282
*561 FILLER_0_27_346
*562 FILLER_0_27_348
*563 FILLER_0_27_66
*564 FILLER_0_27_72
*565 FILLER_0_28_101
*566 FILLER_0_28_115
*567 FILLER_0_28_119
*568 FILLER_0_28_123
*569 FILLER_0_28_131
*570 FILLER_0_28_137
*571 FILLER_0_28_141
*572 FILLER_0_28_152
*573 FILLER_0_28_156
*574 FILLER_0_28_169
*575 FILLER_0_28_173
*576 FILLER_0_28_177
*577 FILLER_0_28_185
*578 FILLER_0_28_189
*579 FILLER_0_28_2
*580 FILLER_0_28_220
*581 FILLER_0_28_224
*582 FILLER_0_28_233
*583 FILLER_0_28_241
*584 FILLER_0_28_247
*585 FILLER_0_28_311
*586 FILLER_0_28_317
*587 FILLER_0_28_321
*588 FILLER_0_28_34
*589 FILLER_0_28_37
*590 FILLER_0_29_126
*591 FILLER_0_29_128
*592 FILLER_0_29_142
*593 FILLER_0_29_155
*594 FILLER_0_29_163
*595 FILLER_0_29_171
*596 FILLER_0_29_177
*597 FILLER_0_29_179
*598 FILLER_0_29_186
*599 FILLER_0_29_194
*600 FILLER_0_29_196
*601 FILLER_0_29_2
*602 FILLER_0_29_202
*603 FILLER_0_29_206
*604 FILLER_0_29_212
*605 FILLER_0_29_243
*606 FILLER_0_29_275
*607 FILLER_0_29_279
*608 FILLER_0_29_282
*609 FILLER_0_29_346
*610 FILLER_0_29_348
*611 FILLER_0_29_66
*612 FILLER_0_29_72
*613 FILLER_0_29_88
*614 FILLER_0_2_101
*615 FILLER_0_2_107
*616 FILLER_0_2_171
*617 FILLER_0_2_2
*618 FILLER_0_2_203
*619 FILLER_0_2_235
*620 FILLER_0_2_243
*621 FILLER_0_2_247
*622 FILLER_0_2_311
*623 FILLER_0_2_317
*624 FILLER_0_2_34
*625 FILLER_0_2_37
*626 FILLER_0_30_101
*627 FILLER_0_30_107
*628 FILLER_0_30_186
*629 FILLER_0_30_190
*630 FILLER_0_30_221
*631 FILLER_0_30_225
*632 FILLER_0_30_236
*633 FILLER_0_30_244
*634 FILLER_0_30_247
*635 FILLER_0_30_28
*636 FILLER_0_30_311
*637 FILLER_0_30_317
*638 FILLER_0_30_32
*639 FILLER_0_30_321
*640 FILLER_0_30_34
*641 FILLER_0_30_37
*642 FILLER_0_31_122
*643 FILLER_0_31_126
*644 FILLER_0_31_134
*645 FILLER_0_31_157
*646 FILLER_0_31_165
*647 FILLER_0_31_195
*648 FILLER_0_31_199
*649 FILLER_0_31_205
*650 FILLER_0_31_209
*651 FILLER_0_31_217
*652 FILLER_0_31_249
*653 FILLER_0_31_265
*654 FILLER_0_31_273
*655 FILLER_0_31_277
*656 FILLER_0_31_279
*657 FILLER_0_31_28
*658 FILLER_0_31_282
*659 FILLER_0_31_346
*660 FILLER_0_31_348
*661 FILLER_0_31_60
*662 FILLER_0_31_68
*663 FILLER_0_31_72
*664 FILLER_0_32_101
*665 FILLER_0_32_107
*666 FILLER_0_32_139
*667 FILLER_0_32_143
*668 FILLER_0_32_145
*669 FILLER_0_32_148
*670 FILLER_0_32_164
*671 FILLER_0_32_172
*672 FILLER_0_32_174
*673 FILLER_0_32_181
*674 FILLER_0_32_2
*675 FILLER_0_32_247
*676 FILLER_0_32_311
*677 FILLER_0_32_317
*678 FILLER_0_32_34
*679 FILLER_0_32_37
*680 FILLER_0_33_136
*681 FILLER_0_33_142
*682 FILLER_0_33_2
*683 FILLER_0_33_206
*684 FILLER_0_33_212
*685 FILLER_0_33_276
*686 FILLER_0_33_282
*687 FILLER_0_33_346
*688 FILLER_0_33_348
*689 FILLER_0_33_66
*690 FILLER_0_33_72
*691 FILLER_0_34_101
*692 FILLER_0_34_107
*693 FILLER_0_34_171
*694 FILLER_0_34_177
*695 FILLER_0_34_2
*696 FILLER_0_34_241
*697 FILLER_0_34_247
*698 FILLER_0_34_311
*699 FILLER_0_34_317
*700 FILLER_0_34_34
*701 FILLER_0_34_37
*702 FILLER_0_35_136
*703 FILLER_0_35_142
*704 FILLER_0_35_2
*705 FILLER_0_35_206
*706 FILLER_0_35_212
*707 FILLER_0_35_276
*708 FILLER_0_35_282
*709 FILLER_0_35_346
*710 FILLER_0_35_348
*711 FILLER_0_35_66
*712 FILLER_0_35_72
*713 FILLER_0_36_101
*714 FILLER_0_36_107
*715 FILLER_0_36_171
*716 FILLER_0_36_177
*717 FILLER_0_36_2
*718 FILLER_0_36_241
*719 FILLER_0_36_247
*720 FILLER_0_36_311
*721 FILLER_0_36_317
*722 FILLER_0_36_34
*723 FILLER_0_36_37
*724 FILLER_0_37_136
*725 FILLER_0_37_142
*726 FILLER_0_37_2
*727 FILLER_0_37_206
*728 FILLER_0_37_212
*729 FILLER_0_37_276
*730 FILLER_0_37_282
*731 FILLER_0_37_346
*732 FILLER_0_37_348
*733 FILLER_0_37_66
*734 FILLER_0_37_72
*735 FILLER_0_38_101
*736 FILLER_0_38_107
*737 FILLER_0_38_171
*738 FILLER_0_38_177
*739 FILLER_0_38_2
*740 FILLER_0_38_241
*741 FILLER_0_38_247
*742 FILLER_0_38_311
*743 FILLER_0_38_317
*744 FILLER_0_38_34
*745 FILLER_0_38_37
*746 FILLER_0_39_136
*747 FILLER_0_39_142
*748 FILLER_0_39_2
*749 FILLER_0_39_206
*750 FILLER_0_39_212
*751 FILLER_0_39_276
*752 FILLER_0_39_282
*753 FILLER_0_39_346
*754 FILLER_0_39_348
*755 FILLER_0_39_66
*756 FILLER_0_39_72
*757 FILLER_0_3_136
*758 FILLER_0_3_142
*759 FILLER_0_3_2
*760 FILLER_0_3_206
*761 FILLER_0_3_212
*762 FILLER_0_3_276
*763 FILLER_0_3_282
*764 FILLER_0_3_346
*765 FILLER_0_3_348
*766 FILLER_0_3_66
*767 FILLER_0_3_72
*768 FILLER_0_40_101
*769 FILLER_0_40_107
*770 FILLER_0_40_171
*771 FILLER_0_40_177
*772 FILLER_0_40_2
*773 FILLER_0_40_241
*774 FILLER_0_40_247
*775 FILLER_0_40_311
*776 FILLER_0_40_317
*777 FILLER_0_40_34
*778 FILLER_0_40_37
*779 FILLER_0_41_136
*780 FILLER_0_41_142
*781 FILLER_0_41_2
*782 FILLER_0_41_206
*783 FILLER_0_41_212
*784 FILLER_0_41_276
*785 FILLER_0_41_282
*786 FILLER_0_41_346
*787 FILLER_0_41_348
*788 FILLER_0_41_66
*789 FILLER_0_41_72
*790 FILLER_0_42_101
*791 FILLER_0_42_107
*792 FILLER_0_42_171
*793 FILLER_0_42_177
*794 FILLER_0_42_2
*795 FILLER_0_42_241
*796 FILLER_0_42_247
*797 FILLER_0_42_311
*798 FILLER_0_42_317
*799 FILLER_0_42_34
*800 FILLER_0_42_37
*801 FILLER_0_43_136
*802 FILLER_0_43_142
*803 FILLER_0_43_2
*804 FILLER_0_43_206
*805 FILLER_0_43_212
*806 FILLER_0_43_216
*807 FILLER_0_43_243
*808 FILLER_0_43_275
*809 FILLER_0_43_279
*810 FILLER_0_43_282
*811 FILLER_0_43_346
*812 FILLER_0_43_348
*813 FILLER_0_43_66
*814 FILLER_0_43_72
*815 FILLER_0_44_104
*816 FILLER_0_44_138
*817 FILLER_0_44_142
*818 FILLER_0_44_172
*819 FILLER_0_44_2
*820 FILLER_0_44_232
*821 FILLER_0_44_236
*822 FILLER_0_44_240
*823 FILLER_0_44_274
*824 FILLER_0_44_308
*825 FILLER_0_44_342
*826 FILLER_0_44_346
*827 FILLER_0_44_348
*828 FILLER_0_44_36
*829 FILLER_0_44_70
*830 FILLER_0_4_101
*831 FILLER_0_4_107
*832 FILLER_0_4_171
*833 FILLER_0_4_177
*834 FILLER_0_4_2
*835 FILLER_0_4_241
*836 FILLER_0_4_247
*837 FILLER_0_4_311
*838 FILLER_0_4_317
*839 FILLER_0_4_34
*840 FILLER_0_4_37
*841 FILLER_0_5_136
*842 FILLER_0_5_142
*843 FILLER_0_5_2
*844 FILLER_0_5_206
*845 FILLER_0_5_212
*846 FILLER_0_5_276
*847 FILLER_0_5_282
*848 FILLER_0_5_346
*849 FILLER_0_5_348
*850 FILLER_0_5_66
*851 FILLER_0_5_72
*852 FILLER_0_6_101
*853 FILLER_0_6_107
*854 FILLER_0_6_171
*855 FILLER_0_6_177
*856 FILLER_0_6_2
*857 FILLER_0_6_241
*858 FILLER_0_6_247
*859 FILLER_0_6_311
*860 FILLER_0_6_317
*861 FILLER_0_6_34
*862 FILLER_0_6_37
*863 FILLER_0_7_136
*864 FILLER_0_7_142
*865 FILLER_0_7_2
*866 FILLER_0_7_206
*867 FILLER_0_7_212
*868 FILLER_0_7_276
*869 FILLER_0_7_282
*870 FILLER_0_7_346
*871 FILLER_0_7_348
*872 FILLER_0_7_66
*873 FILLER_0_7_72
*874 FILLER_0_8_101
*875 FILLER_0_8_107
*876 FILLER_0_8_171
*877 FILLER_0_8_177
*878 FILLER_0_8_2
*879 FILLER_0_8_241
*880 FILLER_0_8_247
*881 FILLER_0_8_311
*882 FILLER_0_8_317
*883 FILLER_0_8_34
*884 FILLER_0_8_37
*885 FILLER_0_9_136
*886 FILLER_0_9_142
*887 FILLER_0_9_2
*888 FILLER_0_9_206
*889 FILLER_0_9_212
*890 FILLER_0_9_276
*891 FILLER_0_9_282
*892 FILLER_0_9_346
*893 FILLER_0_9_348
*894 FILLER_0_9_66
*895 FILLER_0_9_72
*896 PHY_EDGE_ROW_0_Left_45
*897 PHY_EDGE_ROW_0_Right_0
*898 PHY_EDGE_ROW_10_Left_55
*899 PHY_EDGE_ROW_10_Right_10
*900 PHY_EDGE_ROW_11_Left_56
*901 PHY_EDGE_ROW_11_Right_11
*902 PHY_EDGE_ROW_12_Left_57
*903 PHY_EDGE_ROW_12_Right_12
*904 PHY_EDGE_ROW_13_Left_58
*905 PHY_EDGE_ROW_13_Right_13
*906 PHY_EDGE_ROW_14_Left_59
*907 PHY_EDGE_ROW_14_Right_14
*908 PHY_EDGE_ROW_15_Left_60
*909 PHY_EDGE_ROW_15_Right_15
*910 PHY_EDGE_ROW_16_Left_61
*911 PHY_EDGE_ROW_16_Right_16
*912 PHY_EDGE_ROW_17_Left_62
*913 PHY_EDGE_ROW_17_Right_17
*914 PHY_EDGE_ROW_18_Left_63
*915 PHY_EDGE_ROW_18_Right_18
*916 PHY_EDGE_ROW_19_Left_64
*917 PHY_EDGE_ROW_19_Right_19
*918 PHY_EDGE_ROW_1_Left_46
*919 PHY_EDGE_ROW_1_Right_1
*920 PHY_EDGE_ROW_20_Left_65
*921 PHY_EDGE_ROW_20_Right_20
*922 PHY_EDGE_ROW_21_Left_66
*923 PHY_EDGE_ROW_21_Right_21
*924 PHY_EDGE_ROW_22_Left_67
*925 PHY_EDGE_ROW_22_Right_22
*926 PHY_EDGE_ROW_23_Left_68
*927 PHY_EDGE_ROW_23_Right_23
*928 PHY_EDGE_ROW_24_Left_69
*929 PHY_EDGE_ROW_24_Right_24
*930 PHY_EDGE_ROW_25_Left_70
*931 PHY_EDGE_ROW_25_Right_25
*932 PHY_EDGE_ROW_26_Left_71
*933 PHY_EDGE_ROW_26_Right_26
*934 PHY_EDGE_ROW_27_Left_72
*935 PHY_EDGE_ROW_27_Right_27
*936 PHY_EDGE_ROW_28_Left_73
*937 PHY_EDGE_ROW_28_Right_28
*938 PHY_EDGE_ROW_29_Left_74
*939 PHY_EDGE_ROW_29_Right_29
*940 PHY_EDGE_ROW_2_Left_47
*941 PHY_EDGE_ROW_2_Right_2
*942 PHY_EDGE_ROW_30_Left_75
*943 PHY_EDGE_ROW_30_Right_30
*944 PHY_EDGE_ROW_31_Left_76
*945 PHY_EDGE_ROW_31_Right_31
*946 PHY_EDGE_ROW_32_Left_77
*947 PHY_EDGE_ROW_32_Right_32
*948 PHY_EDGE_ROW_33_Left_78
*949 PHY_EDGE_ROW_33_Right_33
*950 PHY_EDGE_ROW_34_Left_79
*951 PHY_EDGE_ROW_34_Right_34
*952 PHY_EDGE_ROW_35_Left_80
*953 PHY_EDGE_ROW_35_Right_35
*954 PHY_EDGE_ROW_36_Left_81
*955 PHY_EDGE_ROW_36_Right_36
*956 PHY_EDGE_ROW_37_Left_82
*957 PHY_EDGE_ROW_37_Right_37
*958 PHY_EDGE_ROW_38_Left_83
*959 PHY_EDGE_ROW_38_Right_38
*960 PHY_EDGE_ROW_39_Left_84
*961 PHY_EDGE_ROW_39_Right_39
*962 PHY_EDGE_ROW_3_Left_48
*963 PHY_EDGE_ROW_3_Right_3
*964 PHY_EDGE_ROW_40_Left_85
*965 PHY_EDGE_ROW_40_Right_40
*966 PHY_EDGE_ROW_41_Left_86
*967 PHY_EDGE_ROW_41_Right_41
*968 PHY_EDGE_ROW_42_Left_87
*969 PHY_EDGE_ROW_42_Right_42
*970 PHY_EDGE_ROW_43_Left_88
*971 PHY_EDGE_ROW_43_Right_43
*972 PHY_EDGE_ROW_44_Left_89
*973 PHY_EDGE_ROW_44_Right_44
*974 PHY_EDGE_ROW_4_Left_49
*975 PHY_EDGE_ROW_4_Right_4
*976 PHY_EDGE_ROW_5_Left_50
*977 PHY_EDGE_ROW_5_Right_5
*978 PHY_EDGE_ROW_6_Left_51
*979 PHY_EDGE_ROW_6_Right_6
*980 PHY_EDGE_ROW_7_Left_52
*981 PHY_EDGE_ROW_7_Right_7
*982 PHY_EDGE_ROW_8_Left_53
*983 PHY_EDGE_ROW_8_Right_8
*984 PHY_EDGE_ROW_9_Left_54
*985 PHY_EDGE_ROW_9_Right_9
*986 TAP_TAPCELL_ROW_0_90
*987 TAP_TAPCELL_ROW_0_91
*988 TAP_TAPCELL_ROW_0_92
*989 TAP_TAPCELL_ROW_0_93
*990 TAP_TAPCELL_ROW_0_94
*991 TAP_TAPCELL_ROW_0_95
*992 TAP_TAPCELL_ROW_0_96
*993 TAP_TAPCELL_ROW_0_97
*994 TAP_TAPCELL_ROW_0_98
*995 TAP_TAPCELL_ROW_0_99
*996 TAP_TAPCELL_ROW_10_140
*997 TAP_TAPCELL_ROW_10_141
*998 TAP_TAPCELL_ROW_10_142
*999 TAP_TAPCELL_ROW_10_143
*1000 TAP_TAPCELL_ROW_10_144
*1001 TAP_TAPCELL_ROW_11_145
*1002 TAP_TAPCELL_ROW_11_146
*1003 TAP_TAPCELL_ROW_11_147
*1004 TAP_TAPCELL_ROW_11_148
*1005 TAP_TAPCELL_ROW_12_149
*1006 TAP_TAPCELL_ROW_12_150
*1007 TAP_TAPCELL_ROW_12_151
*1008 TAP_TAPCELL_ROW_12_152
*1009 TAP_TAPCELL_ROW_12_153
*1010 TAP_TAPCELL_ROW_13_154
*1011 TAP_TAPCELL_ROW_13_155
*1012 TAP_TAPCELL_ROW_13_156
*1013 TAP_TAPCELL_ROW_13_157
*1014 TAP_TAPCELL_ROW_14_158
*1015 TAP_TAPCELL_ROW_14_159
*1016 TAP_TAPCELL_ROW_14_160
*1017 TAP_TAPCELL_ROW_14_161
*1018 TAP_TAPCELL_ROW_14_162
*1019 TAP_TAPCELL_ROW_15_163
*1020 TAP_TAPCELL_ROW_15_164
*1021 TAP_TAPCELL_ROW_15_165
*1022 TAP_TAPCELL_ROW_15_166
*1023 TAP_TAPCELL_ROW_16_167
*1024 TAP_TAPCELL_ROW_16_168
*1025 TAP_TAPCELL_ROW_16_169
*1026 TAP_TAPCELL_ROW_16_170
*1027 TAP_TAPCELL_ROW_16_171
*1028 TAP_TAPCELL_ROW_17_172
*1029 TAP_TAPCELL_ROW_17_173
*1030 TAP_TAPCELL_ROW_17_174
*1031 TAP_TAPCELL_ROW_17_175
*1032 TAP_TAPCELL_ROW_18_176
*1033 TAP_TAPCELL_ROW_18_177
*1034 TAP_TAPCELL_ROW_18_178
*1035 TAP_TAPCELL_ROW_18_179
*1036 TAP_TAPCELL_ROW_18_180
*1037 TAP_TAPCELL_ROW_19_181
*1038 TAP_TAPCELL_ROW_19_182
*1039 TAP_TAPCELL_ROW_19_183
*1040 TAP_TAPCELL_ROW_19_184
*1041 TAP_TAPCELL_ROW_1_100
*1042 TAP_TAPCELL_ROW_1_101
*1043 TAP_TAPCELL_ROW_1_102
*1044 TAP_TAPCELL_ROW_1_103
*1045 TAP_TAPCELL_ROW_20_185
*1046 TAP_TAPCELL_ROW_20_186
*1047 TAP_TAPCELL_ROW_20_187
*1048 TAP_TAPCELL_ROW_20_188
*1049 TAP_TAPCELL_ROW_20_189
*1050 TAP_TAPCELL_ROW_21_190
*1051 TAP_TAPCELL_ROW_21_191
*1052 TAP_TAPCELL_ROW_21_192
*1053 TAP_TAPCELL_ROW_21_193
*1054 TAP_TAPCELL_ROW_22_194
*1055 TAP_TAPCELL_ROW_22_195
*1056 TAP_TAPCELL_ROW_22_196
*1057 TAP_TAPCELL_ROW_22_197
*1058 TAP_TAPCELL_ROW_22_198
*1059 TAP_TAPCELL_ROW_23_199
*1060 TAP_TAPCELL_ROW_23_200
*1061 TAP_TAPCELL_ROW_23_201
*1062 TAP_TAPCELL_ROW_23_202
*1063 TAP_TAPCELL_ROW_24_203
*1064 TAP_TAPCELL_ROW_24_204
*1065 TAP_TAPCELL_ROW_24_205
*1066 TAP_TAPCELL_ROW_24_206
*1067 TAP_TAPCELL_ROW_24_207
*1068 TAP_TAPCELL_ROW_25_208
*1069 TAP_TAPCELL_ROW_25_209
*1070 TAP_TAPCELL_ROW_25_210
*1071 TAP_TAPCELL_ROW_25_211
*1072 TAP_TAPCELL_ROW_26_212
*1073 TAP_TAPCELL_ROW_26_213
*1074 TAP_TAPCELL_ROW_26_214
*1075 TAP_TAPCELL_ROW_26_215
*1076 TAP_TAPCELL_ROW_26_216
*1077 TAP_TAPCELL_ROW_27_217
*1078 TAP_TAPCELL_ROW_27_218
*1079 TAP_TAPCELL_ROW_27_219
*1080 TAP_TAPCELL_ROW_27_220
*1081 TAP_TAPCELL_ROW_28_221
*1082 TAP_TAPCELL_ROW_28_222
*1083 TAP_TAPCELL_ROW_28_223
*1084 TAP_TAPCELL_ROW_28_224
*1085 TAP_TAPCELL_ROW_28_225
*1086 TAP_TAPCELL_ROW_29_226
*1087 TAP_TAPCELL_ROW_29_227
*1088 TAP_TAPCELL_ROW_29_228
*1089 TAP_TAPCELL_ROW_29_229
*1090 TAP_TAPCELL_ROW_2_104
*1091 TAP_TAPCELL_ROW_2_105
*1092 TAP_TAPCELL_ROW_2_106
*1093 TAP_TAPCELL_ROW_2_107
*1094 TAP_TAPCELL_ROW_2_108
*1095 TAP_TAPCELL_ROW_30_230
*1096 TAP_TAPCELL_ROW_30_231
*1097 TAP_TAPCELL_ROW_30_232
*1098 TAP_TAPCELL_ROW_30_233
*1099 TAP_TAPCELL_ROW_30_234
*1100 TAP_TAPCELL_ROW_31_235
*1101 TAP_TAPCELL_ROW_31_236
*1102 TAP_TAPCELL_ROW_31_237
*1103 TAP_TAPCELL_ROW_31_238
*1104 TAP_TAPCELL_ROW_32_239
*1105 TAP_TAPCELL_ROW_32_240
*1106 TAP_TAPCELL_ROW_32_241
*1107 TAP_TAPCELL_ROW_32_242
*1108 TAP_TAPCELL_ROW_32_243
*1109 TAP_TAPCELL_ROW_33_244
*1110 TAP_TAPCELL_ROW_33_245
*1111 TAP_TAPCELL_ROW_33_246
*1112 TAP_TAPCELL_ROW_33_247
*1113 TAP_TAPCELL_ROW_34_248
*1114 TAP_TAPCELL_ROW_34_249
*1115 TAP_TAPCELL_ROW_34_250
*1116 TAP_TAPCELL_ROW_34_251
*1117 TAP_TAPCELL_ROW_34_252
*1118 TAP_TAPCELL_ROW_35_253
*1119 TAP_TAPCELL_ROW_35_254
*1120 TAP_TAPCELL_ROW_35_255
*1121 TAP_TAPCELL_ROW_35_256
*1122 TAP_TAPCELL_ROW_36_257
*1123 TAP_TAPCELL_ROW_36_258
*1124 TAP_TAPCELL_ROW_36_259
*1125 TAP_TAPCELL_ROW_36_260
*1126 TAP_TAPCELL_ROW_36_261
*1127 TAP_TAPCELL_ROW_37_262
*1128 TAP_TAPCELL_ROW_37_263
*1129 TAP_TAPCELL_ROW_37_264
*1130 TAP_TAPCELL_ROW_37_265
*1131 TAP_TAPCELL_ROW_38_266
*1132 TAP_TAPCELL_ROW_38_267
*1133 TAP_TAPCELL_ROW_38_268
*1134 TAP_TAPCELL_ROW_38_269
*1135 TAP_TAPCELL_ROW_38_270
*1136 TAP_TAPCELL_ROW_39_271
*1137 TAP_TAPCELL_ROW_39_272
*1138 TAP_TAPCELL_ROW_39_273
*1139 TAP_TAPCELL_ROW_39_274
*1140 TAP_TAPCELL_ROW_3_109
*1141 TAP_TAPCELL_ROW_3_110
*1142 TAP_TAPCELL_ROW_3_111
*1143 TAP_TAPCELL_ROW_3_112
*1144 TAP_TAPCELL_ROW_40_275
*1145 TAP_TAPCELL_ROW_40_276
*1146 TAP_TAPCELL_ROW_40_277
*1147 TAP_TAPCELL_ROW_40_278
*1148 TAP_TAPCELL_ROW_40_279
*1149 TAP_TAPCELL_ROW_41_280
*1150 TAP_TAPCELL_ROW_41_281
*1151 TAP_TAPCELL_ROW_41_282
*1152 TAP_TAPCELL_ROW_41_283
*1153 TAP_TAPCELL_ROW_42_284
*1154 TAP_TAPCELL_ROW_42_285
*1155 TAP_TAPCELL_ROW_42_286
*1156 TAP_TAPCELL_ROW_42_287
*1157 TAP_TAPCELL_ROW_42_288
*1158 TAP_TAPCELL_ROW_43_289
*1159 TAP_TAPCELL_ROW_43_290
*1160 TAP_TAPCELL_ROW_43_291
*1161 TAP_TAPCELL_ROW_43_292
*1162 TAP_TAPCELL_ROW_44_293
*1163 TAP_TAPCELL_ROW_44_294
*1164 TAP_TAPCELL_ROW_44_295
*1165 TAP_TAPCELL_ROW_44_296
*1166 TAP_TAPCELL_ROW_44_297
*1167 TAP_TAPCELL_ROW_44_298
*1168 TAP_TAPCELL_ROW_44_299
*1169 TAP_TAPCELL_ROW_44_300
*1170 TAP_TAPCELL_ROW_44_301
*1171 TAP_TAPCELL_ROW_44_302
*1172 TAP_TAPCELL_ROW_4_113
*1173 TAP_TAPCELL_ROW_4_114
*1174 TAP_TAPCELL_ROW_4_115
*1175 TAP_TAPCELL_ROW_4_116
*1176 TAP_TAPCELL_ROW_4_117
*1177 TAP_TAPCELL_ROW_5_118
*1178 TAP_TAPCELL_ROW_5_119
*1179 TAP_TAPCELL_ROW_5_120
*1180 TAP_TAPCELL_ROW_5_121
*1181 TAP_TAPCELL_ROW_6_122
*1182 TAP_TAPCELL_ROW_6_123
*1183 TAP_TAPCELL_ROW_6_124
*1184 TAP_TAPCELL_ROW_6_125
*1185 TAP_TAPCELL_ROW_6_126
*1186 TAP_TAPCELL_ROW_7_127
*1187 TAP_TAPCELL_ROW_7_128
*1188 TAP_TAPCELL_ROW_7_129
*1189 TAP_TAPCELL_ROW_7_130
*1190 TAP_TAPCELL_ROW_8_131
*1191 TAP_TAPCELL_ROW_8_132
*1192 TAP_TAPCELL_ROW_8_133
*1193 TAP_TAPCELL_ROW_8_134
*1194 TAP_TAPCELL_ROW_8_135
*1195 TAP_TAPCELL_ROW_9_136
*1196 TAP_TAPCELL_ROW_9_137
*1197 TAP_TAPCELL_ROW_9_138
*1198 TAP_TAPCELL_ROW_9_139
*1199 _105_
*1200 _106_
*1201 _107_
*1202 _108_
*1203 _109_
*1204 _110_
*1205 _111_
*1206 _112_
*1207 _113_
*1208 _114_
*1209 _115_
*1210 _116_
*1211 _117_
*1212 _118_
*1213 _119_
*1214 _120_
*1215 _121_
*1216 _122_
*1217 _123_
*1218 _124_
*1219 _125_
*1220 _126_
*1221 _127_
*1222 _128_
*1223 _129_
*1224 _130_
*1225 _131_
*1226 _132_
*1227 _133_
*1228 _134_
*1229 _135_
*1230 _136_
*1231 _137_
*1232 _138_
*1233 _139_
*1234 _140_
*1235 _141_
*1236 _142_
*1237 _143_
*1238 _144_
*1239 _145_
*1240 _146_
*1241 _147_
*1242 _148_
*1243 _149_
*1244 _150_
*1245 _151_
*1246 _152_
*1247 _153_
*1248 _154_
*1249 _155_
*1250 _156_
*1251 _157_
*1252 _158_
*1253 _159_
*1254 _160_
*1255 _161_
*1256 _162_
*1257 _163_
*1258 _164_
*1259 _165_
*1260 _166_
*1261 _167_
*1262 _168_
*1263 _169_
*1264 _170_
*1265 _171_
*1266 _172_
*1267 _173_
*1268 _174_
*1269 _175_
*1270 _176_
*1271 _177_
*1272 _178_
*1273 _179_
*1274 _180_
*1275 _181_
*1276 _182_
*1277 _183_
*1278 _184_
*1279 _185_
*1280 _186_
*1281 _187_
*1282 _188_
*1283 _189_
*1284 _190_
*1285 _191_
*1286 _192_
*1287 _193_
*1288 _194_
*1289 _195_
*1290 _196_
*1291 _197_
*1292 _198_
*1293 _199_
*1294 _200_
*1295 _201_
*1296 _202_
*1297 _203_
*1298 _204_
*1299 _205_
*1300 _206_
*1301 _207_
*1302 _208_
*1303 _209_
*1304 _210_
*1305 _211_
*1306 _212_
*1307 _213_
*1308 _214_
*1309 _215_
*1310 _216_
*1311 _217_
*1312 _218_
*1313 _219_
*1314 _220_
*1315 _221_
*1316 _222_
*1317 _223_
*1318 _224_
*1319 _225_
*1320 _226_
*1321 _227_
*1322 _228_
*1323 _229_
*1324 _230_
*1325 _231_
*1326 _232_
*1327 _233_
*1328 _234_
*1329 _237_
*1330 _238_
*1331 _239_
*1332 clkbuf_0_clk
*1333 clkbuf_1_0__f_clk
*1334 clkbuf_1_1__f_clk
*1335 ita58_25
*1336 ita58_26
*1337 output1
*1338 output10
*1339 output11
*1340 output12
*1341 output13
*1342 output14
*1343 output15
*1344 output16
*1345 output17
*1346 output18
*1347 output19
*1348 output2
*1349 output20
*1350 output21
*1351 output22
*1352 output23
*1353 output24
*1354 output3
*1355 output4
*1356 output5
*1357 output6
*1358 output7
*1359 output8
*1360 output9

*PORTS
clk I
segm[0] O
segm[10] O
segm[11] O
segm[12] O
segm[13] O
segm[1] O
segm[2] O
segm[3] O
segm[4] O
segm[5] O
segm[6] O
segm[7] O
segm[8] O
segm[9] O
sel[0] O
sel[10] O
sel[11] O
sel[1] O
sel[2] O
sel[3] O
sel[4] O
sel[5] O
sel[6] O
sel[7] O
sel[8] O
sel[9] O

*D_NET *1 0.0123453
*CONN
*P clk I
*I *195:I I *D gf180mcu_fd_sc_mcu7t5v0__antenna
*I *1332:I I *D gf180mcu_fd_sc_mcu7t5v0__clkbuf_16
*CAP
1 clk 0.00409198
2 *195:I 9.23838e-05
3 *1332:I 0.000128353
4 *1:13 0.00431271
5 *195:I *101:10 4.55999e-05
6 *195:I *121:27 0.000111582
7 *1332:I *1334:I 0.000212665
8 *1332:I *110:41 0.000212665
9 *1:13 sel[11] 6.94814e-05
10 *1:13 *1200:I 0.000212728
11 *1:13 *1205:A1 4.06219e-05
12 *1:13 *1249:A2 0
13 *1:13 *1249:A3 8.64274e-05
14 *1:13 *1249:B 0
15 *1:13 *1290:A2 0.000775013
16 *1:13 *1295:B 0.000289427
17 *1:13 *1300:B2 0.000117346
18 *1:13 *1312:D 0
19 *1:13 *1327:D 0.000382081
20 *1:13 *1343:I 0
21 *1:13 *1345:I 3.63092e-05
22 *1:13 *1355:I 0.000331343
23 *1:13 *88:14 0.000403495
24 *1:13 *98:27 1.50701e-05
25 *1:13 *101:10 4.34581e-05
26 *1:13 *121:27 0.000334566
*RES
1 clk *1:13 45.945 
2 *1:13 *1332:I 10.08 
3 *1:13 *195:I 9.81 
*END

*D_NET *2 0.000847028
*CONN
*P segm[0] O
*I *1335:ZN O *D gf180mcu_fd_sc_mcu7t5v0__tiel
*CAP
1 segm[0] 0.000386891
2 *1335:ZN 0.000386891
3 segm[0] segm[8] 7.32466e-05
*RES
1 *1335:ZN segm[0] 12.015 
*END

*D_NET *3 0.000706014
*CONN
*P segm[10] O
*I *1337:Z O *D gf180mcu_fd_sc_mcu7t5v0__buf_8
*CAP
1 segm[10] 0.000323548
2 *1337:Z 0.000323548
3 segm[10] segm[7] 5.8918e-05
*RES
1 *1337:Z segm[10] 11.475 
*END

*D_NET *4 0.000785625
*CONN
*P segm[11] O
*I *1348:Z O *D gf180mcu_fd_sc_mcu7t5v0__buf_8
*CAP
1 segm[11] 0.000328597
2 *1348:Z 0.000328597
3 segm[11] segm[4] 6.94814e-05
4 segm[11] segm[9] 5.89484e-05
*RES
1 *1348:Z segm[11] 11.835 
*END

*D_NET *5 0.00189651
*CONN
*P segm[12] O
*I *1354:Z O *D gf180mcu_fd_sc_mcu7t5v0__buf_8
*CAP
1 segm[12] 0.000877676
2 *1354:Z 0.000877676
3 segm[12] segm[2] 0.000125478
4 segm[12] *1354:I 1.56779e-05
*RES
1 *1354:Z segm[12] 20.295 
*END
