*SPEF "ieee 1481-1999"
*DESIGN "ita64"
*DATE "11:11:11 Fri 11 11, 1111"
*VENDOR "OpenRCX"
*PROGRAM "Parallel Extraction"
*VERSION "1.0"
*DESIGN_FLOW "NAME_SCOPE LOCAL" "PIN_CAP NONE"
*DIVIDER /
*DELIMITER :
*BUS_DELIMITER []
*T_UNIT 1 NS
*C_UNIT 1 PF
*R_UNIT 1 OHM
*L_UNIT 1 HENRY

*NAME_MAP
*1 clk
*2 segm[0]
*3 segm[10]
*4 segm[11]
*5 segm[12]
*6 segm[13]
*7 net25
*8 segm[2]
*9 segm[3]
*10 net26
*11 segm[5]
*12 segm[6]
*13 segm[7]
*14 segm[8]
*15 segm[9]
*16 sel[0]
*17 sel[10]
*18 sel[11]
*19 sel[1]
*20 sel[2]
*21 sel[3]
*22 sel[4]
*23 sel[5]
*24 sel[6]
*25 sel[7]
*26 sel[8]
*27 sel[9]
*30 _000_
*31 _001_
*32 _002_
*33 _003_
*34 _004_
*35 _005_
*36 _006_
*37 _007_
*38 _008_
*39 _009_
*40 _010_
*41 _011_
*42 _012_
*43 _013_
*44 _014_
*45 _015_
*46 _016_
*47 _017_
*48 _018_
*49 _019_
*50 _020_
*51 _021_
*52 _022_
*53 _023_
*54 _024_
*55 _025_
*56 _026_
*57 _027_
*58 _028_
*59 _029_
*60 _030_
*61 _031_
*62 _032_
*63 _033_
*64 _034_
*65 _035_
*66 _036_
*67 _037_
*68 _038_
*69 _039_
*70 _040_
*71 _041_
*72 _042_
*73 _043_
*74 _044_
*75 _045_
*76 _046_
*77 _047_
*78 _048_
*79 _049_
*80 _050_
*81 _051_
*82 _052_
*83 _053_
*84 _054_
*85 _055_
*86 _056_
*87 _057_
*88 _058_
*89 _059_
*90 _060_
*91 _061_
*92 _062_
*93 _063_
*94 _064_
*95 _065_
*96 _066_
*97 _067_
*98 _068_
*99 _069_
*100 _070_
*101 _071_
*102 _072_
*103 _073_
*104 _074_
*105 _075_
*106 _076_
*107 _077_
*108 _078_
*109 _079_
*110 _080_
*111 _081_
*112 _082_
*113 _083_
*114 _084_
*115 _085_
*116 _086_
*117 clknet_0_clk
*118 clknet_1_0__leaf_clk
*119 clknet_1_1__leaf_clk
*120 dut64\.count\[0\]
*121 dut64\.count\[1\]
*122 dut64\.count\[2\]
*123 dut64\.count\[3\]
*124 net1
*125 net10
*126 net11
*127 net12
*128 net13
*129 net14
*130 net15
*131 net16
*132 net17
*133 net18
*134 net19
*135 net2
*136 net20
*137 net21
*138 net22
*139 net23
*140 net24
*141 net3
*142 net4
*143 net5
*144 net6
*145 net7
*146 net8
*147 net9
*148 ANTENNA__174__CLK
*149 ANTENNA__175__CLK
*150 ANTENNA__176__CLK
*151 ANTENNA__177__CLK
*152 ANTENNA__178__CLK
*153 ANTENNA__179__CLK
*154 ANTENNA__180__CLK
*155 ANTENNA__181__CLK
*156 ANTENNA__182__CLK
*157 ANTENNA__183__CLK
*158 ANTENNA__184__CLK
*159 ANTENNA__185__CLK
*160 ANTENNA__186__CLK
*161 ANTENNA__187__CLK
*162 ANTENNA__188__CLK
*163 ANTENNA__189__CLK
*164 ANTENNA__190__CLK
*165 ANTENNA__191__CLK
*166 ANTENNA__192__CLK
*167 ANTENNA__193__CLK
*168 ANTENNA__194__CLK
*169 ANTENNA__195__CLK
*170 ANTENNA__196__CLK
*171 ANTENNA_clkbuf_0_clk_I
*172 FILLER_0_0_104
*173 FILLER_0_0_138
*174 FILLER_0_0_142
*175 FILLER_0_0_172
*176 FILLER_0_0_176
*177 FILLER_0_0_2
*178 FILLER_0_0_232
*179 FILLER_0_0_236
*180 FILLER_0_0_266
*181 FILLER_0_0_270
*182 FILLER_0_0_274
*183 FILLER_0_0_308
*184 FILLER_0_0_342
*185 FILLER_0_0_346
*186 FILLER_0_0_348
*187 FILLER_0_0_36
*188 FILLER_0_0_70
*189 FILLER_0_10_101
*190 FILLER_0_10_107
*191 FILLER_0_10_171
*192 FILLER_0_10_177
*193 FILLER_0_10_2
*194 FILLER_0_10_241
*195 FILLER_0_10_247
*196 FILLER_0_10_311
*197 FILLER_0_10_317
*198 FILLER_0_10_34
*199 FILLER_0_10_37
*200 FILLER_0_11_136
*201 FILLER_0_11_142
*202 FILLER_0_11_2
*203 FILLER_0_11_206
*204 FILLER_0_11_212
*205 FILLER_0_11_276
*206 FILLER_0_11_282
*207 FILLER_0_11_346
*208 FILLER_0_11_348
*209 FILLER_0_11_66
*210 FILLER_0_11_72
*211 FILLER_0_12_101
*212 FILLER_0_12_107
*213 FILLER_0_12_171
*214 FILLER_0_12_177
*215 FILLER_0_12_2
*216 FILLER_0_12_241
*217 FILLER_0_12_247
*218 FILLER_0_12_311
*219 FILLER_0_12_317
*220 FILLER_0_12_34
*221 FILLER_0_12_37
*222 FILLER_0_13_136
*223 FILLER_0_13_142
*224 FILLER_0_13_150
*225 FILLER_0_13_154
*226 FILLER_0_13_185
*227 FILLER_0_13_189
*228 FILLER_0_13_2
*229 FILLER_0_13_205
*230 FILLER_0_13_209
*231 FILLER_0_13_212
*232 FILLER_0_13_276
*233 FILLER_0_13_282
*234 FILLER_0_13_346
*235 FILLER_0_13_348
*236 FILLER_0_13_66
*237 FILLER_0_13_72
*238 FILLER_0_14_101
*239 FILLER_0_14_107
*240 FILLER_0_14_123
*241 FILLER_0_14_131
*242 FILLER_0_14_164
*243 FILLER_0_14_168
*244 FILLER_0_14_172
*245 FILLER_0_14_174
*246 FILLER_0_14_177
*247 FILLER_0_14_2
*248 FILLER_0_14_241
*249 FILLER_0_14_247
*250 FILLER_0_14_311
*251 FILLER_0_14_317
*252 FILLER_0_14_34
*253 FILLER_0_14_37
*254 FILLER_0_15_104
*255 FILLER_0_15_120
*256 FILLER_0_15_124
*257 FILLER_0_15_130
*258 FILLER_0_15_138
*259 FILLER_0_15_142
*260 FILLER_0_15_158
*261 FILLER_0_15_165
*262 FILLER_0_15_169
*263 FILLER_0_15_2
*264 FILLER_0_15_205
*265 FILLER_0_15_209
*266 FILLER_0_15_224
*267 FILLER_0_15_256
*268 FILLER_0_15_272
*269 FILLER_0_15_282
*270 FILLER_0_15_346
*271 FILLER_0_15_348
*272 FILLER_0_15_66
*273 FILLER_0_15_72
*274 FILLER_0_16_101
*275 FILLER_0_16_136
*276 FILLER_0_16_142
*277 FILLER_0_16_146
*278 FILLER_0_16_154
*279 FILLER_0_16_162
*280 FILLER_0_16_174
*281 FILLER_0_16_183
*282 FILLER_0_16_191
*283 FILLER_0_16_2
*284 FILLER_0_16_226
*285 FILLER_0_16_230
*286 FILLER_0_16_238
*287 FILLER_0_16_242
*288 FILLER_0_16_244
*289 FILLER_0_16_247
*290 FILLER_0_16_311
*291 FILLER_0_16_317
*292 FILLER_0_16_34
*293 FILLER_0_16_37
*294 FILLER_0_17_104
*295 FILLER_0_17_108
*296 FILLER_0_17_110
*297 FILLER_0_17_147
*298 FILLER_0_17_149
*299 FILLER_0_17_160
*300 FILLER_0_17_164
*301 FILLER_0_17_172
*302 FILLER_0_17_188
*303 FILLER_0_17_206
*304 FILLER_0_17_212
*305 FILLER_0_17_245
*306 FILLER_0_17_277
*307 FILLER_0_17_279
*308 FILLER_0_17_28
*309 FILLER_0_17_282
*310 FILLER_0_17_346
*311 FILLER_0_17_348
*312 FILLER_0_17_60
*313 FILLER_0_17_68
*314 FILLER_0_17_72
*315 FILLER_0_18_101
*316 FILLER_0_18_107
*317 FILLER_0_18_123
*318 FILLER_0_18_143
*319 FILLER_0_18_159
*320 FILLER_0_18_169
*321 FILLER_0_18_173
*322 FILLER_0_18_2
*323 FILLER_0_18_227
*324 FILLER_0_18_243
*325 FILLER_0_18_247
*326 FILLER_0_18_311
*327 FILLER_0_18_317
*328 FILLER_0_18_34
*329 FILLER_0_18_37
*330 FILLER_0_19_121
*331 FILLER_0_19_125
*332 FILLER_0_19_133
*333 FILLER_0_19_137
*334 FILLER_0_19_139
*335 FILLER_0_19_148
*336 FILLER_0_19_156
*337 FILLER_0_19_158
*338 FILLER_0_19_165
*339 FILLER_0_19_2
*340 FILLER_0_19_208
*341 FILLER_0_19_217
*342 FILLER_0_19_221
*343 FILLER_0_19_256
*344 FILLER_0_19_272
*345 FILLER_0_19_282
*346 FILLER_0_19_314
*347 FILLER_0_19_322
*348 FILLER_0_19_66
*349 FILLER_0_19_72
*350 FILLER_0_19_88
*351 FILLER_0_1_136
*352 FILLER_0_1_142
*353 FILLER_0_1_158
*354 FILLER_0_1_162
*355 FILLER_0_1_189
*356 FILLER_0_1_2
*357 FILLER_0_1_205
*358 FILLER_0_1_209
*359 FILLER_0_1_212
*360 FILLER_0_1_216
*361 FILLER_0_1_243
*362 FILLER_0_1_275
*363 FILLER_0_1_279
*364 FILLER_0_1_282
*365 FILLER_0_1_346
*366 FILLER_0_1_348
*367 FILLER_0_1_66
*368 FILLER_0_1_72
*369 FILLER_0_20_101
*370 FILLER_0_20_107
*371 FILLER_0_20_115
*372 FILLER_0_20_119
*373 FILLER_0_20_125
*374 FILLER_0_20_157
*375 FILLER_0_20_173
*376 FILLER_0_20_177
*377 FILLER_0_20_179
*378 FILLER_0_20_2
*379 FILLER_0_20_238
*380 FILLER_0_20_242
*381 FILLER_0_20_244
*382 FILLER_0_20_260
*383 FILLER_0_20_292
*384 FILLER_0_20_308
*385 FILLER_0_20_312
*386 FILLER_0_20_314
*387 FILLER_0_20_317
*388 FILLER_0_20_321
*389 FILLER_0_20_34
*390 FILLER_0_20_37
*391 FILLER_0_21_133
*392 FILLER_0_21_137
*393 FILLER_0_21_139
*394 FILLER_0_21_142
*395 FILLER_0_21_150
*396 FILLER_0_21_152
*397 FILLER_0_21_169
*398 FILLER_0_21_173
*399 FILLER_0_21_177
*400 FILLER_0_21_199
*401 FILLER_0_21_201
*402 FILLER_0_21_208
*403 FILLER_0_21_212
*404 FILLER_0_21_256
*405 FILLER_0_21_272
*406 FILLER_0_21_28
*407 FILLER_0_21_282
*408 FILLER_0_21_346
*409 FILLER_0_21_348
*410 FILLER_0_21_60
*411 FILLER_0_21_68
*412 FILLER_0_21_72
*413 FILLER_0_22_101
*414 FILLER_0_22_107
*415 FILLER_0_22_115
*416 FILLER_0_22_119
*417 FILLER_0_22_128
*418 FILLER_0_22_144
*419 FILLER_0_22_154
*420 FILLER_0_22_156
*421 FILLER_0_22_173
*422 FILLER_0_22_227
*423 FILLER_0_22_243
*424 FILLER_0_22_247
*425 FILLER_0_22_28
*426 FILLER_0_22_311
*427 FILLER_0_22_317
*428 FILLER_0_22_32
*429 FILLER_0_22_34
*430 FILLER_0_22_37
*431 FILLER_0_23_114
*432 FILLER_0_23_118
*433 FILLER_0_23_174
*434 FILLER_0_23_178
*435 FILLER_0_23_2
*436 FILLER_0_23_209
*437 FILLER_0_23_218
*438 FILLER_0_23_239
*439 FILLER_0_23_271
*440 FILLER_0_23_279
*441 FILLER_0_23_282
*442 FILLER_0_23_314
*443 FILLER_0_23_322
*444 FILLER_0_23_66
*445 FILLER_0_23_72
*446 FILLER_0_23_80
*447 FILLER_0_23_84
*448 FILLER_0_24_107
*449 FILLER_0_24_111
*450 FILLER_0_24_120
*451 FILLER_0_24_128
*452 FILLER_0_24_136
*453 FILLER_0_24_158
*454 FILLER_0_24_174
*455 FILLER_0_24_190
*456 FILLER_0_24_194
*457 FILLER_0_24_208
*458 FILLER_0_24_224
*459 FILLER_0_24_232
*460 FILLER_0_24_234
*461 FILLER_0_24_240
*462 FILLER_0_24_244
*463 FILLER_0_24_247
*464 FILLER_0_24_28
*465 FILLER_0_24_311
*466 FILLER_0_24_317
*467 FILLER_0_24_32
*468 FILLER_0_24_34
*469 FILLER_0_24_37
*470 FILLER_0_24_69
*471 FILLER_0_24_85
*472 FILLER_0_24_93
*473 FILLER_0_24_97
*474 FILLER_0_25_128
*475 FILLER_0_25_132
*476 FILLER_0_25_142
*477 FILLER_0_25_158
*478 FILLER_0_25_162
*479 FILLER_0_25_189
*480 FILLER_0_25_2
*481 FILLER_0_25_206
*482 FILLER_0_25_212
*483 FILLER_0_25_220
*484 FILLER_0_25_224
*485 FILLER_0_25_226
*486 FILLER_0_25_258
*487 FILLER_0_25_274
*488 FILLER_0_25_278
*489 FILLER_0_25_282
*490 FILLER_0_25_346
*491 FILLER_0_25_348
*492 FILLER_0_25_66
*493 FILLER_0_25_72
*494 FILLER_0_25_88
*495 FILLER_0_26_101
*496 FILLER_0_26_113
*497 FILLER_0_26_123
*498 FILLER_0_26_139
*499 FILLER_0_26_147
*500 FILLER_0_26_151
*501 FILLER_0_26_163
*502 FILLER_0_26_171
*503 FILLER_0_26_232
*504 FILLER_0_26_236
*505 FILLER_0_26_238
*506 FILLER_0_26_244
*507 FILLER_0_26_252
*508 FILLER_0_26_28
*509 FILLER_0_26_284
*510 FILLER_0_26_300
*511 FILLER_0_26_308
*512 FILLER_0_26_312
*513 FILLER_0_26_314
*514 FILLER_0_26_317
*515 FILLER_0_26_32
*516 FILLER_0_26_321
*517 FILLER_0_26_34
*518 FILLER_0_26_37
*519 FILLER_0_27_130
*520 FILLER_0_27_138
*521 FILLER_0_27_151
*522 FILLER_0_27_153
*523 FILLER_0_27_2
*524 FILLER_0_27_212
*525 FILLER_0_27_214
*526 FILLER_0_27_244
*527 FILLER_0_27_276
*528 FILLER_0_27_282
*529 FILLER_0_27_314
*530 FILLER_0_27_322
*531 FILLER_0_27_66
*532 FILLER_0_27_72
*533 FILLER_0_27_88
*534 FILLER_0_28_101
*535 FILLER_0_28_113
*536 FILLER_0_28_129
*537 FILLER_0_28_133
*538 FILLER_0_28_164
*539 FILLER_0_28_168
*540 FILLER_0_28_172
*541 FILLER_0_28_174
*542 FILLER_0_28_177
*543 FILLER_0_28_185
*544 FILLER_0_28_187
*545 FILLER_0_28_217
*546 FILLER_0_28_221
*547 FILLER_0_28_225
*548 FILLER_0_28_229
*549 FILLER_0_28_240
*550 FILLER_0_28_244
*551 FILLER_0_28_253
*552 FILLER_0_28_28
*553 FILLER_0_28_285
*554 FILLER_0_28_301
*555 FILLER_0_28_309
*556 FILLER_0_28_313
*557 FILLER_0_28_317
*558 FILLER_0_28_32
*559 FILLER_0_28_321
*560 FILLER_0_28_34
*561 FILLER_0_28_37
*562 FILLER_0_29_104
*563 FILLER_0_29_108
*564 FILLER_0_29_110
*565 FILLER_0_29_146
*566 FILLER_0_29_150
*567 FILLER_0_29_166
*568 FILLER_0_29_174
*569 FILLER_0_29_177
*570 FILLER_0_29_193
*571 FILLER_0_29_2
*572 FILLER_0_29_201
*573 FILLER_0_29_207
*574 FILLER_0_29_209
*575 FILLER_0_29_212
*576 FILLER_0_29_220
*577 FILLER_0_29_253
*578 FILLER_0_29_269
*579 FILLER_0_29_277
*580 FILLER_0_29_279
*581 FILLER_0_29_282
*582 FILLER_0_29_314
*583 FILLER_0_29_322
*584 FILLER_0_29_66
*585 FILLER_0_29_72
*586 FILLER_0_2_101
*587 FILLER_0_2_107
*588 FILLER_0_2_165
*589 FILLER_0_2_173
*590 FILLER_0_2_177
*591 FILLER_0_2_2
*592 FILLER_0_2_241
*593 FILLER_0_2_247
*594 FILLER_0_2_311
*595 FILLER_0_2_317
*596 FILLER_0_2_34
*597 FILLER_0_2_37
*598 FILLER_0_30_101
*599 FILLER_0_30_107
*600 FILLER_0_30_139
*601 FILLER_0_30_143
*602 FILLER_0_30_145
*603 FILLER_0_30_183
*604 FILLER_0_30_2
*605 FILLER_0_30_215
*606 FILLER_0_30_231
*607 FILLER_0_30_239
*608 FILLER_0_30_243
*609 FILLER_0_30_247
*610 FILLER_0_30_311
*611 FILLER_0_30_317
*612 FILLER_0_30_34
*613 FILLER_0_30_37
*614 FILLER_0_31_136
*615 FILLER_0_31_142
*616 FILLER_0_31_2
*617 FILLER_0_31_206
*618 FILLER_0_31_212
*619 FILLER_0_31_276
*620 FILLER_0_31_282
*621 FILLER_0_31_346
*622 FILLER_0_31_348
*623 FILLER_0_31_66
*624 FILLER_0_31_72
*625 FILLER_0_32_101
*626 FILLER_0_32_107
*627 FILLER_0_32_171
*628 FILLER_0_32_177
*629 FILLER_0_32_2
*630 FILLER_0_32_241
*631 FILLER_0_32_247
*632 FILLER_0_32_311
*633 FILLER_0_32_317
*634 FILLER_0_32_34
*635 FILLER_0_32_37
*636 FILLER_0_33_136
*637 FILLER_0_33_142
*638 FILLER_0_33_2
*639 FILLER_0_33_206
*640 FILLER_0_33_212
*641 FILLER_0_33_276
*642 FILLER_0_33_282
*643 FILLER_0_33_346
*644 FILLER_0_33_348
*645 FILLER_0_33_66
*646 FILLER_0_33_72
*647 FILLER_0_34_101
*648 FILLER_0_34_107
*649 FILLER_0_34_171
*650 FILLER_0_34_177
*651 FILLER_0_34_2
*652 FILLER_0_34_241
*653 FILLER_0_34_247
*654 FILLER_0_34_311
*655 FILLER_0_34_317
*656 FILLER_0_34_34
*657 FILLER_0_34_37
*658 FILLER_0_35_136
*659 FILLER_0_35_142
*660 FILLER_0_35_2
*661 FILLER_0_35_206
*662 FILLER_0_35_212
*663 FILLER_0_35_276
*664 FILLER_0_35_282
*665 FILLER_0_35_346
*666 FILLER_0_35_348
*667 FILLER_0_35_66
*668 FILLER_0_35_72
*669 FILLER_0_36_101
*670 FILLER_0_36_107
*671 FILLER_0_36_171
*672 FILLER_0_36_177
*673 FILLER_0_36_2
*674 FILLER_0_36_241
*675 FILLER_0_36_247
*676 FILLER_0_36_311
*677 FILLER_0_36_317
*678 FILLER_0_36_34
*679 FILLER_0_36_37
*680 FILLER_0_37_136
*681 FILLER_0_37_142
*682 FILLER_0_37_2
*683 FILLER_0_37_206
*684 FILLER_0_37_212
*685 FILLER_0_37_276
*686 FILLER_0_37_282
*687 FILLER_0_37_346
*688 FILLER_0_37_348
*689 FILLER_0_37_66
*690 FILLER_0_37_72
*691 FILLER_0_38_101
*692 FILLER_0_38_107
*693 FILLER_0_38_171
*694 FILLER_0_38_177
*695 FILLER_0_38_2
*696 FILLER_0_38_241
*697 FILLER_0_38_247
*698 FILLER_0_38_311
*699 FILLER_0_38_317
*700 FILLER_0_38_34
*701 FILLER_0_38_37
*702 FILLER_0_39_136
*703 FILLER_0_39_142
*704 FILLER_0_39_2
*705 FILLER_0_39_206
*706 FILLER_0_39_212
*707 FILLER_0_39_276
*708 FILLER_0_39_282
*709 FILLER_0_39_346
*710 FILLER_0_39_348
*711 FILLER_0_39_66
*712 FILLER_0_39_72
*713 FILLER_0_3_136
*714 FILLER_0_3_142
*715 FILLER_0_3_2
*716 FILLER_0_3_206
*717 FILLER_0_3_212
*718 FILLER_0_3_276
*719 FILLER_0_3_282
*720 FILLER_0_3_346
*721 FILLER_0_3_348
*722 FILLER_0_3_66
*723 FILLER_0_3_72
*724 FILLER_0_40_101
*725 FILLER_0_40_107
*726 FILLER_0_40_171
*727 FILLER_0_40_177
*728 FILLER_0_40_2
*729 FILLER_0_40_241
*730 FILLER_0_40_247
*731 FILLER_0_40_311
*732 FILLER_0_40_317
*733 FILLER_0_40_34
*734 FILLER_0_40_37
*735 FILLER_0_41_136
*736 FILLER_0_41_142
*737 FILLER_0_41_2
*738 FILLER_0_41_206
*739 FILLER_0_41_212
*740 FILLER_0_41_276
*741 FILLER_0_41_282
*742 FILLER_0_41_346
*743 FILLER_0_41_348
*744 FILLER_0_41_66
*745 FILLER_0_41_72
*746 FILLER_0_42_101
*747 FILLER_0_42_107
*748 FILLER_0_42_171
*749 FILLER_0_42_177
*750 FILLER_0_42_2
*751 FILLER_0_42_241
*752 FILLER_0_42_247
*753 FILLER_0_42_311
*754 FILLER_0_42_317
*755 FILLER_0_42_333
*756 FILLER_0_42_34
*757 FILLER_0_42_341
*758 FILLER_0_42_37
*759 FILLER_0_43_136
*760 FILLER_0_43_142
*761 FILLER_0_43_195
*762 FILLER_0_43_2
*763 FILLER_0_43_203
*764 FILLER_0_43_207
*765 FILLER_0_43_209
*766 FILLER_0_43_212
*767 FILLER_0_43_276
*768 FILLER_0_43_282
*769 FILLER_0_43_346
*770 FILLER_0_43_348
*771 FILLER_0_43_66
*772 FILLER_0_43_72
*773 FILLER_0_44_104
*774 FILLER_0_44_142
*775 FILLER_0_44_172
*776 FILLER_0_44_174
*777 FILLER_0_44_2
*778 FILLER_0_44_201
*779 FILLER_0_44_203
*780 FILLER_0_44_206
*781 FILLER_0_44_240
*782 FILLER_0_44_274
*783 FILLER_0_44_308
*784 FILLER_0_44_342
*785 FILLER_0_44_346
*786 FILLER_0_44_348
*787 FILLER_0_44_36
*788 FILLER_0_44_70
*789 FILLER_0_4_101
*790 FILLER_0_4_107
*791 FILLER_0_4_171
*792 FILLER_0_4_177
*793 FILLER_0_4_2
*794 FILLER_0_4_241
*795 FILLER_0_4_247
*796 FILLER_0_4_311
*797 FILLER_0_4_317
*798 FILLER_0_4_34
*799 FILLER_0_4_37
*800 FILLER_0_5_136
*801 FILLER_0_5_142
*802 FILLER_0_5_2
*803 FILLER_0_5_206
*804 FILLER_0_5_212
*805 FILLER_0_5_276
*806 FILLER_0_5_282
*807 FILLER_0_5_346
*808 FILLER_0_5_348
*809 FILLER_0_5_66
*810 FILLER_0_5_72
*811 FILLER_0_6_101
*812 FILLER_0_6_107
*813 FILLER_0_6_171
*814 FILLER_0_6_177
*815 FILLER_0_6_2
*816 FILLER_0_6_241
*817 FILLER_0_6_247
*818 FILLER_0_6_311
*819 FILLER_0_6_317
*820 FILLER_0_6_34
*821 FILLER_0_6_37
*822 FILLER_0_7_136
*823 FILLER_0_7_142
*824 FILLER_0_7_2
*825 FILLER_0_7_206
*826 FILLER_0_7_212
*827 FILLER_0_7_276
*828 FILLER_0_7_282
*829 FILLER_0_7_346
*830 FILLER_0_7_348
*831 FILLER_0_7_66
*832 FILLER_0_7_72
*833 FILLER_0_8_101
*834 FILLER_0_8_107
*835 FILLER_0_8_171
*836 FILLER_0_8_177
*837 FILLER_0_8_2
*838 FILLER_0_8_241
*839 FILLER_0_8_247
*840 FILLER_0_8_311
*841 FILLER_0_8_317
*842 FILLER_0_8_34
*843 FILLER_0_8_37
*844 FILLER_0_9_136
*845 FILLER_0_9_142
*846 FILLER_0_9_2
*847 FILLER_0_9_206
*848 FILLER_0_9_212
*849 FILLER_0_9_276
*850 FILLER_0_9_282
*851 FILLER_0_9_346
*852 FILLER_0_9_348
*853 FILLER_0_9_66
*854 FILLER_0_9_72
*855 PHY_EDGE_ROW_0_Left_45
*856 PHY_EDGE_ROW_0_Right_0
*857 PHY_EDGE_ROW_10_Left_55
*858 PHY_EDGE_ROW_10_Right_10
*859 PHY_EDGE_ROW_11_Left_56
*860 PHY_EDGE_ROW_11_Right_11
*861 PHY_EDGE_ROW_12_Left_57
*862 PHY_EDGE_ROW_12_Right_12
*863 PHY_EDGE_ROW_13_Left_58
*864 PHY_EDGE_ROW_13_Right_13
*865 PHY_EDGE_ROW_14_Left_59
*866 PHY_EDGE_ROW_14_Right_14
*867 PHY_EDGE_ROW_15_Left_60
*868 PHY_EDGE_ROW_15_Right_15
*869 PHY_EDGE_ROW_16_Left_61
*870 PHY_EDGE_ROW_16_Right_16
*871 PHY_EDGE_ROW_17_Left_62
*872 PHY_EDGE_ROW_17_Right_17
*873 PHY_EDGE_ROW_18_Left_63
*874 PHY_EDGE_ROW_18_Right_18
*875 PHY_EDGE_ROW_19_Left_64
*876 PHY_EDGE_ROW_19_Right_19
*877 PHY_EDGE_ROW_1_Left_46
*878 PHY_EDGE_ROW_1_Right_1
*879 PHY_EDGE_ROW_20_Left_65
*880 PHY_EDGE_ROW_20_Right_20
*881 PHY_EDGE_ROW_21_Left_66
*882 PHY_EDGE_ROW_21_Right_21
*883 PHY_EDGE_ROW_22_Left_67
*884 PHY_EDGE_ROW_22_Right_22
*885 PHY_EDGE_ROW_23_Left_68
*886 PHY_EDGE_ROW_23_Right_23
*887 PHY_EDGE_ROW_24_Left_69
*888 PHY_EDGE_ROW_24_Right_24
*889 PHY_EDGE_ROW_25_Left_70
*890 PHY_EDGE_ROW_25_Right_25
*891 PHY_EDGE_ROW_26_Left_71
*892 PHY_EDGE_ROW_26_Right_26
*893 PHY_EDGE_ROW_27_Left_72
*894 PHY_EDGE_ROW_27_Right_27
*895 PHY_EDGE_ROW_28_Left_73
*896 PHY_EDGE_ROW_28_Right_28
*897 PHY_EDGE_ROW_29_Left_74
*898 PHY_EDGE_ROW_29_Right_29
*899 PHY_EDGE_ROW_2_Left_47
*900 PHY_EDGE_ROW_2_Right_2
*901 PHY_EDGE_ROW_30_Left_75
*902 PHY_EDGE_ROW_30_Right_30
*903 PHY_EDGE_ROW_31_Left_76
*904 PHY_EDGE_ROW_31_Right_31
*905 PHY_EDGE_ROW_32_Left_77
*906 PHY_EDGE_ROW_32_Right_32
*907 PHY_EDGE_ROW_33_Left_78
*908 PHY_EDGE_ROW_33_Right_33
*909 PHY_EDGE_ROW_34_Left_79
*910 PHY_EDGE_ROW_34_Right_34
*911 PHY_EDGE_ROW_35_Left_80
*912 PHY_EDGE_ROW_35_Right_35
*913 PHY_EDGE_ROW_36_Left_81
*914 PHY_EDGE_ROW_36_Right_36
*915 PHY_EDGE_ROW_37_Left_82
*916 PHY_EDGE_ROW_37_Right_37
*917 PHY_EDGE_ROW_38_Left_83
*918 PHY_EDGE_ROW_38_Right_38
*919 PHY_EDGE_ROW_39_Left_84
*920 PHY_EDGE_ROW_39_Right_39
*921 PHY_EDGE_ROW_3_Left_48
*922 PHY_EDGE_ROW_3_Right_3
*923 PHY_EDGE_ROW_40_Left_85
*924 PHY_EDGE_ROW_40_Right_40
*925 PHY_EDGE_ROW_41_Left_86
*926 PHY_EDGE_ROW_41_Right_41
*927 PHY_EDGE_ROW_42_Left_87
*928 PHY_EDGE_ROW_42_Right_42
*929 PHY_EDGE_ROW_43_Left_88
*930 PHY_EDGE_ROW_43_Right_43
*931 PHY_EDGE_ROW_44_Left_89
*932 PHY_EDGE_ROW_44_Right_44
*933 PHY_EDGE_ROW_4_Left_49
*934 PHY_EDGE_ROW_4_Right_4
*935 PHY_EDGE_ROW_5_Left_50
*936 PHY_EDGE_ROW_5_Right_5
*937 PHY_EDGE_ROW_6_Left_51
*938 PHY_EDGE_ROW_6_Right_6
*939 PHY_EDGE_ROW_7_Left_52
*940 PHY_EDGE_ROW_7_Right_7
*941 PHY_EDGE_ROW_8_Left_53
*942 PHY_EDGE_ROW_8_Right_8
*943 PHY_EDGE_ROW_9_Left_54
*944 PHY_EDGE_ROW_9_Right_9
*945 TAP_TAPCELL_ROW_0_90
*946 TAP_TAPCELL_ROW_0_91
*947 TAP_TAPCELL_ROW_0_92
*948 TAP_TAPCELL_ROW_0_93
*949 TAP_TAPCELL_ROW_0_94
*950 TAP_TAPCELL_ROW_0_95
*951 TAP_TAPCELL_ROW_0_96
*952 TAP_TAPCELL_ROW_0_97
*953 TAP_TAPCELL_ROW_0_98
*954 TAP_TAPCELL_ROW_0_99
*955 TAP_TAPCELL_ROW_10_140
*956 TAP_TAPCELL_ROW_10_141
*957 TAP_TAPCELL_ROW_10_142
*958 TAP_TAPCELL_ROW_10_143
*959 TAP_TAPCELL_ROW_10_144
*960 TAP_TAPCELL_ROW_11_145
*961 TAP_TAPCELL_ROW_11_146
*962 TAP_TAPCELL_ROW_11_147
*963 TAP_TAPCELL_ROW_11_148
*964 TAP_TAPCELL_ROW_12_149
*965 TAP_TAPCELL_ROW_12_150
*966 TAP_TAPCELL_ROW_12_151
*967 TAP_TAPCELL_ROW_12_152
*968 TAP_TAPCELL_ROW_12_153
*969 TAP_TAPCELL_ROW_13_154
*970 TAP_TAPCELL_ROW_13_155
*971 TAP_TAPCELL_ROW_13_156
*972 TAP_TAPCELL_ROW_13_157
*973 TAP_TAPCELL_ROW_14_158
*974 TAP_TAPCELL_ROW_14_159
*975 TAP_TAPCELL_ROW_14_160
*976 TAP_TAPCELL_ROW_14_161
*977 TAP_TAPCELL_ROW_14_162
*978 TAP_TAPCELL_ROW_15_163
*979 TAP_TAPCELL_ROW_15_164
*980 TAP_TAPCELL_ROW_15_165
*981 TAP_TAPCELL_ROW_15_166
*982 TAP_TAPCELL_ROW_16_167
*983 TAP_TAPCELL_ROW_16_168
*984 TAP_TAPCELL_ROW_16_169
*985 TAP_TAPCELL_ROW_16_170
*986 TAP_TAPCELL_ROW_16_171
*987 TAP_TAPCELL_ROW_17_172
*988 TAP_TAPCELL_ROW_17_173
*989 TAP_TAPCELL_ROW_17_174
*990 TAP_TAPCELL_ROW_17_175
*991 TAP_TAPCELL_ROW_18_176
*992 TAP_TAPCELL_ROW_18_177
*993 TAP_TAPCELL_ROW_18_178
*994 TAP_TAPCELL_ROW_18_179
*995 TAP_TAPCELL_ROW_18_180
*996 TAP_TAPCELL_ROW_19_181
*997 TAP_TAPCELL_ROW_19_182
*998 TAP_TAPCELL_ROW_19_183
*999 TAP_TAPCELL_ROW_19_184
*1000 TAP_TAPCELL_ROW_1_100
*1001 TAP_TAPCELL_ROW_1_101
*1002 TAP_TAPCELL_ROW_1_102
*1003 TAP_TAPCELL_ROW_1_103
*1004 TAP_TAPCELL_ROW_20_185
*1005 TAP_TAPCELL_ROW_20_186
*1006 TAP_TAPCELL_ROW_20_187
*1007 TAP_TAPCELL_ROW_20_188
*1008 TAP_TAPCELL_ROW_20_189
*1009 TAP_TAPCELL_ROW_21_190
*1010 TAP_TAPCELL_ROW_21_191
*1011 TAP_TAPCELL_ROW_21_192
*1012 TAP_TAPCELL_ROW_21_193
*1013 TAP_TAPCELL_ROW_22_194
*1014 TAP_TAPCELL_ROW_22_195
*1015 TAP_TAPCELL_ROW_22_196
*1016 TAP_TAPCELL_ROW_22_197
*1017 TAP_TAPCELL_ROW_22_198
*1018 TAP_TAPCELL_ROW_23_199
*1019 TAP_TAPCELL_ROW_23_200
*1020 TAP_TAPCELL_ROW_23_201
*1021 TAP_TAPCELL_ROW_23_202
*1022 TAP_TAPCELL_ROW_24_203
*1023 TAP_TAPCELL_ROW_24_204
*1024 TAP_TAPCELL_ROW_24_205
*1025 TAP_TAPCELL_ROW_24_206
*1026 TAP_TAPCELL_ROW_24_207
*1027 TAP_TAPCELL_ROW_25_208
*1028 TAP_TAPCELL_ROW_25_209
*1029 TAP_TAPCELL_ROW_25_210
*1030 TAP_TAPCELL_ROW_25_211
*1031 TAP_TAPCELL_ROW_26_212
*1032 TAP_TAPCELL_ROW_26_213
*1033 TAP_TAPCELL_ROW_26_214
*1034 TAP_TAPCELL_ROW_26_215
*1035 TAP_TAPCELL_ROW_26_216
*1036 TAP_TAPCELL_ROW_27_217
*1037 TAP_TAPCELL_ROW_27_218
*1038 TAP_TAPCELL_ROW_27_219
*1039 TAP_TAPCELL_ROW_27_220
*1040 TAP_TAPCELL_ROW_28_221
*1041 TAP_TAPCELL_ROW_28_222
*1042 TAP_TAPCELL_ROW_28_223
*1043 TAP_TAPCELL_ROW_28_224
*1044 TAP_TAPCELL_ROW_28_225
*1045 TAP_TAPCELL_ROW_29_226
*1046 TAP_TAPCELL_ROW_29_227
*1047 TAP_TAPCELL_ROW_29_228
*1048 TAP_TAPCELL_ROW_29_229
*1049 TAP_TAPCELL_ROW_2_104
*1050 TAP_TAPCELL_ROW_2_105
*1051 TAP_TAPCELL_ROW_2_106
*1052 TAP_TAPCELL_ROW_2_107
*1053 TAP_TAPCELL_ROW_2_108
*1054 TAP_TAPCELL_ROW_30_230
*1055 TAP_TAPCELL_ROW_30_231
*1056 TAP_TAPCELL_ROW_30_232
*1057 TAP_TAPCELL_ROW_30_233
*1058 TAP_TAPCELL_ROW_30_234
*1059 TAP_TAPCELL_ROW_31_235
*1060 TAP_TAPCELL_ROW_31_236
*1061 TAP_TAPCELL_ROW_31_237
*1062 TAP_TAPCELL_ROW_31_238
*1063 TAP_TAPCELL_ROW_32_239
*1064 TAP_TAPCELL_ROW_32_240
*1065 TAP_TAPCELL_ROW_32_241
*1066 TAP_TAPCELL_ROW_32_242
*1067 TAP_TAPCELL_ROW_32_243
*1068 TAP_TAPCELL_ROW_33_244
*1069 TAP_TAPCELL_ROW_33_245
*1070 TAP_TAPCELL_ROW_33_246
*1071 TAP_TAPCELL_ROW_33_247
*1072 TAP_TAPCELL_ROW_34_248
*1073 TAP_TAPCELL_ROW_34_249
*1074 TAP_TAPCELL_ROW_34_250
*1075 TAP_TAPCELL_ROW_34_251
*1076 TAP_TAPCELL_ROW_34_252
*1077 TAP_TAPCELL_ROW_35_253
*1078 TAP_TAPCELL_ROW_35_254
*1079 TAP_TAPCELL_ROW_35_255
*1080 TAP_TAPCELL_ROW_35_256
*1081 TAP_TAPCELL_ROW_36_257
*1082 TAP_TAPCELL_ROW_36_258
*1083 TAP_TAPCELL_ROW_36_259
*1084 TAP_TAPCELL_ROW_36_260
*1085 TAP_TAPCELL_ROW_36_261
*1086 TAP_TAPCELL_ROW_37_262
*1087 TAP_TAPCELL_ROW_37_263
*1088 TAP_TAPCELL_ROW_37_264
*1089 TAP_TAPCELL_ROW_37_265
*1090 TAP_TAPCELL_ROW_38_266
*1091 TAP_TAPCELL_ROW_38_267
*1092 TAP_TAPCELL_ROW_38_268
*1093 TAP_TAPCELL_ROW_38_269
*1094 TAP_TAPCELL_ROW_38_270
*1095 TAP_TAPCELL_ROW_39_271
*1096 TAP_TAPCELL_ROW_39_272
*1097 TAP_TAPCELL_ROW_39_273
*1098 TAP_TAPCELL_ROW_39_274
*1099 TAP_TAPCELL_ROW_3_109
*1100 TAP_TAPCELL_ROW_3_110
*1101 TAP_TAPCELL_ROW_3_111
*1102 TAP_TAPCELL_ROW_3_112
*1103 TAP_TAPCELL_ROW_40_275
*1104 TAP_TAPCELL_ROW_40_276
*1105 TAP_TAPCELL_ROW_40_277
*1106 TAP_TAPCELL_ROW_40_278
*1107 TAP_TAPCELL_ROW_40_279
*1108 TAP_TAPCELL_ROW_41_280
*1109 TAP_TAPCELL_ROW_41_281
*1110 TAP_TAPCELL_ROW_41_282
*1111 TAP_TAPCELL_ROW_41_283
*1112 TAP_TAPCELL_ROW_42_284
*1113 TAP_TAPCELL_ROW_42_285
*1114 TAP_TAPCELL_ROW_42_286
*1115 TAP_TAPCELL_ROW_42_287
*1116 TAP_TAPCELL_ROW_42_288
*1117 TAP_TAPCELL_ROW_43_289
*1118 TAP_TAPCELL_ROW_43_290
*1119 TAP_TAPCELL_ROW_43_291
*1120 TAP_TAPCELL_ROW_43_292
*1121 TAP_TAPCELL_ROW_44_293
*1122 TAP_TAPCELL_ROW_44_294
*1123 TAP_TAPCELL_ROW_44_295
*1124 TAP_TAPCELL_ROW_44_296
*1125 TAP_TAPCELL_ROW_44_297
*1126 TAP_TAPCELL_ROW_44_298
*1127 TAP_TAPCELL_ROW_44_299
*1128 TAP_TAPCELL_ROW_44_300
*1129 TAP_TAPCELL_ROW_44_301
*1130 TAP_TAPCELL_ROW_44_302
*1131 TAP_TAPCELL_ROW_4_113
*1132 TAP_TAPCELL_ROW_4_114
*1133 TAP_TAPCELL_ROW_4_115
*1134 TAP_TAPCELL_ROW_4_116
*1135 TAP_TAPCELL_ROW_4_117
*1136 TAP_TAPCELL_ROW_5_118
*1137 TAP_TAPCELL_ROW_5_119
*1138 TAP_TAPCELL_ROW_5_120
*1139 TAP_TAPCELL_ROW_5_121
*1140 TAP_TAPCELL_ROW_6_122
*1141 TAP_TAPCELL_ROW_6_123
*1142 TAP_TAPCELL_ROW_6_124
*1143 TAP_TAPCELL_ROW_6_125
*1144 TAP_TAPCELL_ROW_6_126
*1145 TAP_TAPCELL_ROW_7_127
*1146 TAP_TAPCELL_ROW_7_128
*1147 TAP_TAPCELL_ROW_7_129
*1148 TAP_TAPCELL_ROW_7_130
*1149 TAP_TAPCELL_ROW_8_131
*1150 TAP_TAPCELL_ROW_8_132
*1151 TAP_TAPCELL_ROW_8_133
*1152 TAP_TAPCELL_ROW_8_134
*1153 TAP_TAPCELL_ROW_8_135
*1154 TAP_TAPCELL_ROW_9_136
*1155 TAP_TAPCELL_ROW_9_137
*1156 TAP_TAPCELL_ROW_9_138
*1157 TAP_TAPCELL_ROW_9_139
*1158 _087_
*1159 _088_
*1160 _089_
*1161 _090_
*1162 _091_
*1163 _092_
*1164 _093_
*1165 _094_
*1166 _095_
*1167 _096_
*1168 _097_
*1169 _098_
*1170 _099_
*1171 _100_
*1172 _101_
*1173 _102_
*1174 _103_
*1175 _104_
*1176 _105_
*1177 _106_
*1178 _107_
*1179 _108_
*1180 _109_
*1181 _110_
*1182 _111_
*1183 _112_
*1184 _113_
*1185 _114_
*1186 _115_
*1187 _116_
*1188 _117_
*1189 _118_
*1190 _119_
*1191 _120_
*1192 _121_
*1193 _122_
*1194 _123_
*1195 _124_
*1196 _125_
*1197 _126_
*1198 _127_
*1199 _128_
*1200 _129_
*1201 _130_
*1202 _131_
*1203 _132_
*1204 _133_
*1205 _134_
*1206 _135_
*1207 _136_
*1208 _137_
*1209 _138_
*1210 _139_
*1211 _140_
*1212 _141_
*1213 _142_
*1214 _143_
*1215 _144_
*1216 _145_
*1217 _146_
*1218 _147_
*1219 _148_
*1220 _149_
*1221 _150_
*1222 _151_
*1223 _152_
*1224 _153_
*1225 _154_
*1226 _155_
*1227 _156_
*1228 _157_
*1229 _158_
*1230 _159_
*1231 _160_
*1232 _161_
*1233 _162_
*1234 _163_
*1235 _164_
*1236 _165_
*1237 _166_
*1238 _167_
*1239 _168_
*1240 _169_
*1241 _170_
*1242 _171_
*1243 _172_
*1244 _173_
*1245 _174_
*1246 _175_
*1247 _176_
*1248 _177_
*1249 _178_
*1250 _179_
*1251 _180_
*1252 _181_
*1253 _182_
*1254 _183_
*1255 _184_
*1256 _185_
*1257 _186_
*1258 _187_
*1259 _188_
*1260 _189_
*1261 _190_
*1262 _191_
*1263 _192_
*1264 _193_
*1265 _194_
*1266 _195_
*1267 _196_
*1268 _199_
*1269 _200_
*1270 _201_
*1271 _202_
*1272 _203_
*1273 clkbuf_0_clk
*1274 clkbuf_1_0__f_clk
*1275 clkbuf_1_1__f_clk
*1276 ita64_25
*1277 ita64_26
*1278 output1
*1279 output10
*1280 output11
*1281 output12
*1282 output13
*1283 output14
*1284 output15
*1285 output16
*1286 output17
*1287 output18
*1288 output19
*1289 output2
*1290 output20
*1291 output21
*1292 output22
*1293 output23
*1294 output24
*1295 output3
*1296 output4
*1297 output5
*1298 output6
*1299 output7
*1300 output8
*1301 output9

*PORTS
clk I
segm[0] O
segm[10] O
segm[11] O
segm[12] O
segm[13] O
segm[1] O
segm[2] O
segm[3] O
segm[4] O
segm[5] O
segm[6] O
segm[7] O
segm[8] O
segm[9] O
sel[0] O
sel[10] O
sel[11] O
sel[1] O
sel[2] O
sel[3] O
sel[4] O
sel[5] O
sel[6] O
sel[7] O
sel[8] O
sel[9] O

*D_NET *1 0.0189284
*CONN
*P clk I
*I *1273:I I *D gf180mcu_fd_sc_mcu7t5v0__clkbuf_16
*I *171:I I *D gf180mcu_fd_sc_mcu7t5v0__antenna
*CAP
1 clk 0.00207596
2 *1273:I 0
3 *171:I 0.000274773
4 *1:17 0.00297164
5 *1:11 0.00477283
6 *171:I *1175:A1 1.19584e-05
7 *171:I *116:12 7.06176e-05
8 *171:I *122:33 3.04134e-05
9 *1:11 *1291:I 0.00067298
10 *1:17 *1232:A1 0
11 *1:17 *1233:A1 0.000241809
12 *1:17 *1238:B 0.00101172
13 *1:17 *1283:I 0
14 *1:17 *1290:I 0
15 *1:17 *81:29 0.000231118
16 *1:17 *81:44 0.000737647
17 *1:17 *86:10 0.000955894
18 *1:17 *86:16 0.00226949
19 *1:17 *86:22 0.000365798
20 *1:17 *89:40 0.00211484
21 *1:17 *100:10 6.52236e-05
22 *1:17 *116:12 5.36847e-05
*RES
1 clk *1:11 25.38 
2 *1:11 *1:17 36.948 
3 *1:17 *171:I 6.372 
4 *1:17 *1273:I 4.5 
*END

*D_NET *2 0.00280436
*CONN
*P segm[0] O
*I *1278:Z O *D gf180mcu_fd_sc_mcu7t5v0__buf_8
*CAP
1 segm[0] 0.00128841
2 *1278:Z 0.00128841
3 segm[0] sel[4] 0.000227548
4 segm[0] *1298:I 0
*RES
1 *1278:Z segm[0] 24.888 
*END

*D_NET *3 0.000838878
*CONN
*P segm[10] O
*I *1289:Z O *D gf180mcu_fd_sc_mcu7t5v0__buf_8
*CAP
1 segm[10] 0.000358783
2 *1289:Z 0.000358783
3 segm[10] sel[0] 6.0656e-05
4 segm[10] sel[7] 6.0656e-05
*RES
1 *1289:Z segm[10] 11.86 
*END

*D_NET *4 0.000621678
*CONN
*P segm[11] O
*I *1295:Z O *D gf180mcu_fd_sc_mcu7t5v0__buf_8
*CAP
1 segm[11] 0.000310839
2 *1295:Z 0.000310839
*RES
1 *1295:Z segm[11] 11.86 
*END

*D_NET *5 0.0026177
*CONN
*P segm[12] O
*I *1296:Z O *D gf180mcu_fd_sc_mcu7t5v0__buf_8
*CAP
1 segm[12] 0.00109921
2 *1296:Z 0.00109921
3 segm[12] *1285:I 0.000419276
*RES
1 *1296:Z segm[12] 22.6 
*END

*D_NET *6 0.00283442
*CONN
*P segm[13] O
*I *1297:Z O *D gf180mcu_fd_sc_mcu7t5v0__buf_8
*CAP
1 segm[13] 0.00139631
2 *1297:Z 0.00139631
3 segm[13] *1297:I 4.18042e-05
*RES
1 *1297:Z segm[13] 24.264 
*END

*D_NET *7 0.00195021
*CONN
*P segm[1] O
*I *1276:ZN O *D gf180mcu_fd_sc_mcu7t5v0__tiel
*CAP
1 segm[1] 0.000975106
2 *1276:ZN 0.000975106
*RES
1 *1276:ZN segm[1] 21.352 
*END

*D_NET *8 0.00162748
*CONN
*P segm[2] O
*I *1298:Z O *D gf180mcu_fd_sc_mcu7t5v0__buf_8
*CAP
1 segm[2] 0.000813741
2 *1298:Z 0.000813741
3 segm[2] sel[4] 0
*RES
1 *1298:Z segm[2] 11.208 
*END

*D_NET *9 0.000968211
*CONN
*P segm[3] O
*I *1299:Z O *D gf180mcu_fd_sc_mcu7t5v0__buf_8
*CAP
1 segm[3] 0.000484105
2 *1299:Z 0.000484105
*RES
1 *1299:Z segm[3] 12.692 
*END

*D_NET *10 0.00041822
*CONN
*P segm[4] O
*I *1277:ZN O *D gf180mcu_fd_sc_mcu7t5v0__tiel
*CAP
1 segm[4] 0.00020911
2 *1277:ZN 0.00020911
*RES
1 *1277:ZN segm[4] 10.924 
*END

*D_NET *11 0.00254239
*CONN
*P segm[5] O
*I *1300:Z O *D gf180mcu_fd_sc_mcu7t5v0__buf_8
*CAP
1 segm[5] 0.00103385
2 *1300:Z 0.00103385
3 segm[5] sel[1] 0.000142953
4 segm[5] sel[2] 0.000142953