*SPEF "ieee 1481-1999"
*DESIGN "ita62"
*DATE "11:11:11 Fri 11 11, 1111"
*VENDOR "OpenRCX"
*PROGRAM "Parallel Extraction"
*VERSION "1.0"
*DESIGN_FLOW "NAME_SCOPE LOCAL" "PIN_CAP NONE"
*DIVIDER /
*DELIMITER :
*BUS_DELIMITER []
*T_UNIT 1 NS
*C_UNIT 1 PF
*R_UNIT 1 OHM
*L_UNIT 1 HENRY

*NAME_MAP
*1 clk
*2 net24
*3 segm[10]
*4 segm[11]
*5 segm[12]
*6 segm[13]
*7 segm[1]
*8 segm[2]
*9 net25
*10 segm[4]
*11 net26
*12 segm[6]
*13 segm[7]
*14 segm[8]
*15 segm[9]
*16 sel[0]
*17 sel[10]
*18 sel[11]
*19 sel[1]
*20 sel[2]
*21 sel[3]
*22 sel[4]
*23 sel[5]
*24 sel[6]
*25 sel[7]
*26 sel[8]
*27 sel[9]
*30 _000_
*31 _001_
*32 _002_
*33 _003_
*34 _004_
*35 _005_
*36 _006_
*37 _007_
*38 _008_
*39 _009_
*40 _010_
*41 _011_
*42 _012_
*43 _013_
*44 _014_
*45 _015_
*46 _016_
*47 _017_
*48 _018_
*49 _019_
*50 _020_
*51 _021_
*52 _022_
*53 _023_
*54 _024_
*55 _025_
*56 _026_
*57 _027_
*58 _028_
*59 _029_
*60 _030_
*61 _031_
*62 _032_
*63 _033_
*64 _034_
*65 _035_
*66 _036_
*67 _037_
*68 _038_
*69 _039_
*70 _040_
*71 _041_
*72 _042_
*73 _043_
*74 _044_
*75 _045_
*76 _046_
*77 _047_
*78 _048_
*79 _049_
*80 _050_
*81 _051_
*82 _052_
*83 _053_
*84 _054_
*85 _055_
*86 _056_
*87 _057_
*88 _058_
*89 _059_
*90 _060_
*91 _061_
*92 _062_
*93 _063_
*94 _064_
*95 _065_
*96 _066_
*97 _067_
*98 _068_
*99 _069_
*100 _070_
*101 _071_
*102 _072_
*103 _073_
*104 _074_
*105 _075_
*106 _076_
*107 _077_
*108 _078_
*109 _079_
*110 _080_
*111 _081_
*112 _082_
*113 _083_
*114 _084_
*115 _085_
*116 _086_
*117 _087_
*118 _088_
*119 _089_
*120 _090_
*121 _091_
*122 _092_
*123 _093_
*124 _094_
*125 _095_
*126 _096_
*127 _097_
*128 _098_
*129 _099_
*130 _100_
*131 _101_
*132 _102_
*133 _103_
*134 clknet_0_clk
*135 clknet_1_0__leaf_clk
*136 clknet_1_1__leaf_clk
*137 dut62\.count\[0\]
*138 dut62\.count\[1\]
*139 dut62\.count\[2\]
*140 dut62\.count\[3\]
*141 net1
*142 net10
*143 net11
*144 net12
*145 net13
*146 net14
*147 net15
*148 net16
*149 net17
*150 net18
*151 net19
*152 net2
*153 net20
*154 net21
*155 net22
*156 net23
*157 net3
*158 net4
*159 net5
*160 net6
*161 net7
*162 net8
*163 net9
*164 ANTENNA__117__A2
*165 ANTENNA__164__A1
*166 ANTENNA__178__A2
*167 ANTENNA__194__A2
*168 ANTENNA__197__B1
*169 ANTENNA__198__A2
*170 ANTENNA__203__A2
*171 ANTENNA__208__CLK
*172 ANTENNA__209__CLK
*173 ANTENNA__210__CLK
*174 ANTENNA__211__CLK
*175 ANTENNA__212__CLK
*176 ANTENNA__213__CLK
*177 ANTENNA__214__CLK
*178 ANTENNA__215__CLK
*179 ANTENNA__216__CLK
*180 ANTENNA__217__CLK
*181 ANTENNA__218__CLK
*182 ANTENNA__219__CLK
*183 ANTENNA__220__CLK
*184 ANTENNA__221__CLK
*185 ANTENNA__222__CLK
*186 ANTENNA__223__CLK
*187 ANTENNA__224__CLK
*188 ANTENNA__225__CLK
*189 ANTENNA__226__CLK
*190 ANTENNA__227__CLK
*191 ANTENNA__228__CLK
*192 ANTENNA__229__CLK
*193 ANTENNA__230__CLK
*194 ANTENNA__231__CLK
*195 ANTENNA__232__CLK
*196 ANTENNA_clkbuf_0_clk_I
*197 FILLER_0_0_104
*198 FILLER_0_0_112
*199 FILLER_0_0_114
*200 FILLER_0_0_119
*201 FILLER_0_0_135
*202 FILLER_0_0_164
*203 FILLER_0_0_168
*204 FILLER_0_0_172
*205 FILLER_0_0_176
*206 FILLER_0_0_2
*207 FILLER_0_0_232
*208 FILLER_0_0_236
*209 FILLER_0_0_240
*210 FILLER_0_0_245
*211 FILLER_0_0_261
*212 FILLER_0_0_269
*213 FILLER_0_0_271
*214 FILLER_0_0_274
*215 FILLER_0_0_308
*216 FILLER_0_0_342
*217 FILLER_0_0_346
*218 FILLER_0_0_348
*219 FILLER_0_0_36
*220 FILLER_0_0_70
*221 FILLER_0_10_101
*222 FILLER_0_10_107
*223 FILLER_0_10_171
*224 FILLER_0_10_177
*225 FILLER_0_10_2
*226 FILLER_0_10_241
*227 FILLER_0_10_247
*228 FILLER_0_10_311
*229 FILLER_0_10_317
*230 FILLER_0_10_34
*231 FILLER_0_10_37
*232 FILLER_0_11_136
*233 FILLER_0_11_142
*234 FILLER_0_11_2
*235 FILLER_0_11_206
*236 FILLER_0_11_212
*237 FILLER_0_11_276
*238 FILLER_0_11_282
*239 FILLER_0_11_346
*240 FILLER_0_11_348
*241 FILLER_0_11_66
*242 FILLER_0_11_72
*243 FILLER_0_12_101
*244 FILLER_0_12_107
*245 FILLER_0_12_139
*246 FILLER_0_12_143
*247 FILLER_0_12_174
*248 FILLER_0_12_177
*249 FILLER_0_12_181
*250 FILLER_0_12_2
*251 FILLER_0_12_247
*252 FILLER_0_12_311
*253 FILLER_0_12_317
*254 FILLER_0_12_34
*255 FILLER_0_12_37
*256 FILLER_0_13_104
*257 FILLER_0_13_135
*258 FILLER_0_13_139
*259 FILLER_0_13_142
*260 FILLER_0_13_150
*261 FILLER_0_13_152
*262 FILLER_0_13_158
*263 FILLER_0_13_166
*264 FILLER_0_13_197
*265 FILLER_0_13_2
*266 FILLER_0_13_201
*267 FILLER_0_13_205
*268 FILLER_0_13_207
*269 FILLER_0_13_241
*270 FILLER_0_13_273
*271 FILLER_0_13_277
*272 FILLER_0_13_279
*273 FILLER_0_13_282
*274 FILLER_0_13_346
*275 FILLER_0_13_348
*276 FILLER_0_13_66
*277 FILLER_0_13_72
*278 FILLER_0_14_101
*279 FILLER_0_14_107
*280 FILLER_0_14_115
*281 FILLER_0_14_119
*282 FILLER_0_14_155
*283 FILLER_0_14_159
*284 FILLER_0_14_167
*285 FILLER_0_14_173
*286 FILLER_0_14_190
*287 FILLER_0_14_2
*288 FILLER_0_14_206
*289 FILLER_0_14_247
*290 FILLER_0_14_311
*291 FILLER_0_14_317
*292 FILLER_0_14_34
*293 FILLER_0_14_37
*294 FILLER_0_15_122
*295 FILLER_0_15_126
*296 FILLER_0_15_133
*297 FILLER_0_15_137
*298 FILLER_0_15_139
*299 FILLER_0_15_150
*300 FILLER_0_15_158
*301 FILLER_0_15_160
*302 FILLER_0_15_190
*303 FILLER_0_15_194
*304 FILLER_0_15_2
*305 FILLER_0_15_212
*306 FILLER_0_15_216
*307 FILLER_0_15_234
*308 FILLER_0_15_266
*309 FILLER_0_15_274
*310 FILLER_0_15_278
*311 FILLER_0_15_282
*312 FILLER_0_15_314
*313 FILLER_0_15_322
*314 FILLER_0_15_66
*315 FILLER_0_15_72
*316 FILLER_0_15_88
*317 FILLER_0_15_92
*318 FILLER_0_16_101
*319 FILLER_0_16_107
*320 FILLER_0_16_139
*321 FILLER_0_16_147
*322 FILLER_0_16_154
*323 FILLER_0_16_170
*324 FILLER_0_16_174
*325 FILLER_0_16_195
*326 FILLER_0_16_2
*327 FILLER_0_16_203
*328 FILLER_0_16_213
*329 FILLER_0_16_227
*330 FILLER_0_16_243
*331 FILLER_0_16_247
*332 FILLER_0_16_311
*333 FILLER_0_16_317
*334 FILLER_0_16_34
*335 FILLER_0_16_37
*336 FILLER_0_17_104
*337 FILLER_0_17_112
*338 FILLER_0_17_128
*339 FILLER_0_17_136
*340 FILLER_0_17_142
*341 FILLER_0_17_158
*342 FILLER_0_17_212
*343 FILLER_0_17_220
*344 FILLER_0_17_253
*345 FILLER_0_17_269
*346 FILLER_0_17_277
*347 FILLER_0_17_279
*348 FILLER_0_17_28
*349 FILLER_0_17_282
*350 FILLER_0_17_346
*351 FILLER_0_17_348
*352 FILLER_0_17_60
*353 FILLER_0_17_68
*354 FILLER_0_17_72
*355 FILLER_0_18_101
*356 FILLER_0_18_107
*357 FILLER_0_18_111
*358 FILLER_0_18_113
*359 FILLER_0_18_119
*360 FILLER_0_18_123
*361 FILLER_0_18_127
*362 FILLER_0_18_131
*363 FILLER_0_18_133
*364 FILLER_0_18_140
*365 FILLER_0_18_144
*366 FILLER_0_18_177
*367 FILLER_0_18_181
*368 FILLER_0_18_2
*369 FILLER_0_18_214
*370 FILLER_0_18_222
*371 FILLER_0_18_226
*372 FILLER_0_18_230
*373 FILLER_0_18_238
*374 FILLER_0_18_242
*375 FILLER_0_18_244
*376 FILLER_0_18_247
*377 FILLER_0_18_311
*378 FILLER_0_18_317
*379 FILLER_0_18_321
*380 FILLER_0_18_34
*381 FILLER_0_18_37
*382 FILLER_0_19_116
*383 FILLER_0_19_118
*384 FILLER_0_19_142
*385 FILLER_0_19_183
*386 FILLER_0_19_191
*387 FILLER_0_19_195
*388 FILLER_0_19_2
*389 FILLER_0_19_202
*390 FILLER_0_19_207
*391 FILLER_0_19_209
*392 FILLER_0_19_212
*393 FILLER_0_19_216
*394 FILLER_0_19_220
*395 FILLER_0_19_243
*396 FILLER_0_19_275
*397 FILLER_0_19_279
*398 FILLER_0_19_282
*399 FILLER_0_19_346
*400 FILLER_0_19_348
*401 FILLER_0_19_66
*402 FILLER_0_19_72
*403 FILLER_0_19_80
*404 FILLER_0_19_84
*405 FILLER_0_19_86
*406 FILLER_0_1_136
*407 FILLER_0_1_142
*408 FILLER_0_1_174
*409 FILLER_0_1_2
*410 FILLER_0_1_201
*411 FILLER_0_1_209
*412 FILLER_0_1_212
*413 FILLER_0_1_220
*414 FILLER_0_1_222
*415 FILLER_0_1_249
*416 FILLER_0_1_265
*417 FILLER_0_1_273
*418 FILLER_0_1_277
*419 FILLER_0_1_279
*420 FILLER_0_1_282
*421 FILLER_0_1_346
*422 FILLER_0_1_348
*423 FILLER_0_1_66
*424 FILLER_0_1_72
*425 FILLER_0_20_101
*426 FILLER_0_20_107
*427 FILLER_0_20_111
*428 FILLER_0_20_113
*429 FILLER_0_20_123
*430 FILLER_0_20_127
*431 FILLER_0_20_164
*432 FILLER_0_20_173
*433 FILLER_0_20_185
*434 FILLER_0_20_190
*435 FILLER_0_20_198
*436 FILLER_0_20_215
*437 FILLER_0_20_247
*438 FILLER_0_20_28
*439 FILLER_0_20_311
*440 FILLER_0_20_317
*441 FILLER_0_20_32
*442 FILLER_0_20_321
*443 FILLER_0_20_34
*444 FILLER_0_20_37
*445 FILLER_0_21_104
*446 FILLER_0_21_120
*447 FILLER_0_21_137
*448 FILLER_0_21_139
*449 FILLER_0_21_158
*450 FILLER_0_21_162
*451 FILLER_0_21_165
*452 FILLER_0_21_2
*453 FILLER_0_21_212
*454 FILLER_0_21_230
*455 FILLER_0_21_262
*456 FILLER_0_21_278
*457 FILLER_0_21_282
*458 FILLER_0_21_346
*459 FILLER_0_21_348
*460 FILLER_0_21_66
*461 FILLER_0_21_72
*462 FILLER_0_22_107
*463 FILLER_0_22_115
*464 FILLER_0_22_124
*465 FILLER_0_22_132
*466 FILLER_0_22_140
*467 FILLER_0_22_156
*468 FILLER_0_22_160
*469 FILLER_0_22_2
*470 FILLER_0_22_238
*471 FILLER_0_22_242
*472 FILLER_0_22_244
*473 FILLER_0_22_247
*474 FILLER_0_22_311
*475 FILLER_0_22_317
*476 FILLER_0_22_34
*477 FILLER_0_22_37
*478 FILLER_0_22_69
*479 FILLER_0_22_73
*480 FILLER_0_22_75
*481 FILLER_0_23_135
*482 FILLER_0_23_139
*483 FILLER_0_23_142
*484 FILLER_0_23_152
*485 FILLER_0_23_156
*486 FILLER_0_23_198
*487 FILLER_0_23_206
*488 FILLER_0_23_212
*489 FILLER_0_23_252
*490 FILLER_0_23_268
*491 FILLER_0_23_276
*492 FILLER_0_23_28
*493 FILLER_0_23_282
*494 FILLER_0_23_314
*495 FILLER_0_23_322
*496 FILLER_0_23_60
*497 FILLER_0_23_68
*498 FILLER_0_23_72
*499 FILLER_0_23_80
*500 FILLER_0_23_84
*501 FILLER_0_23_86
*502 FILLER_0_24_101
*503 FILLER_0_24_148
*504 FILLER_0_24_157
*505 FILLER_0_24_168
*506 FILLER_0_24_199
*507 FILLER_0_24_207
*508 FILLER_0_24_211
*509 FILLER_0_24_224
*510 FILLER_0_24_228
*511 FILLER_0_24_244
*512 FILLER_0_24_247
*513 FILLER_0_24_28
*514 FILLER_0_24_311
*515 FILLER_0_24_317
*516 FILLER_0_24_32
*517 FILLER_0_24_333
*518 FILLER_0_24_34
*519 FILLER_0_24_341
*520 FILLER_0_24_37
*521 FILLER_0_25_104
*522 FILLER_0_25_112
*523 FILLER_0_25_120
*524 FILLER_0_25_131
*525 FILLER_0_25_135
*526 FILLER_0_25_138
*527 FILLER_0_25_142
*528 FILLER_0_25_2
*529 FILLER_0_25_207
*530 FILLER_0_25_209
*531 FILLER_0_25_212
*532 FILLER_0_25_220
*533 FILLER_0_25_224
*534 FILLER_0_25_226
*535 FILLER_0_25_229
*536 FILLER_0_25_261
*537 FILLER_0_25_277
*538 FILLER_0_25_279
*539 FILLER_0_25_282
*540 FILLER_0_25_346
*541 FILLER_0_25_348
*542 FILLER_0_25_66
*543 FILLER_0_25_72
*544 FILLER_0_26_101
*545 FILLER_0_26_107
*546 FILLER_0_26_123
*547 FILLER_0_26_126
*548 FILLER_0_26_148
*549 FILLER_0_26_177
*550 FILLER_0_26_181
*551 FILLER_0_26_197
*552 FILLER_0_26_2
*553 FILLER_0_26_205
*554 FILLER_0_26_209
*555 FILLER_0_26_211
*556 FILLER_0_26_243
*557 FILLER_0_26_247
*558 FILLER_0_26_311
*559 FILLER_0_26_317
*560 FILLER_0_26_321
*561 FILLER_0_26_34
*562 FILLER_0_26_37
*563 FILLER_0_27_132
*564 FILLER_0_27_136
*565 FILLER_0_27_142
*566 FILLER_0_27_150
*567 FILLER_0_27_152
*568 FILLER_0_27_159
*569 FILLER_0_27_167
*570 FILLER_0_27_175
*571 FILLER_0_27_179
*572 FILLER_0_27_181
*573 FILLER_0_27_184
*574 FILLER_0_27_2
*575 FILLER_0_27_203
*576 FILLER_0_27_207
*577 FILLER_0_27_209
*578 FILLER_0_27_212
*579 FILLER_0_27_245
*580 FILLER_0_27_277
*581 FILLER_0_27_279
*582 FILLER_0_27_282
*583 FILLER_0_27_314
*584 FILLER_0_27_322
*585 FILLER_0_27_66
*586 FILLER_0_27_72
*587 FILLER_0_27_88
*588 FILLER_0_27_92
*589 FILLER_0_27_94
*590 FILLER_0_28_101
*591 FILLER_0_28_107
*592 FILLER_0_28_126
*593 FILLER_0_28_158
*594 FILLER_0_28_173
*595 FILLER_0_28_2
*596 FILLER_0_28_240
*597 FILLER_0_28_244
*598 FILLER_0_28_247
*599 FILLER_0_28_311
*600 FILLER_0_28_317
*601 FILLER_0_28_34
*602 FILLER_0_28_37
*603 FILLER_0_29_119
*604 FILLER_0_29_123
*605 FILLER_0_29_142
*606 FILLER_0_29_146
*607 FILLER_0_29_148
*608 FILLER_0_29_187
*609 FILLER_0_29_191
*610 FILLER_0_29_195
*611 FILLER_0_29_203
*612 FILLER_0_29_207
*613 FILLER_0_29_209
*614 FILLER_0_29_212
*615 FILLER_0_29_216
*616 FILLER_0_29_218
*617 FILLER_0_29_224
*618 FILLER_0_29_228
*619 FILLER_0_29_260
*620 FILLER_0_29_276
*621 FILLER_0_29_28
*622 FILLER_0_29_282
*623 FILLER_0_29_314
*624 FILLER_0_29_322
*625 FILLER_0_29_60
*626 FILLER_0_29_68
*627 FILLER_0_29_72
*628 FILLER_0_29_88
*629 FILLER_0_2_101
*630 FILLER_0_2_107
*631 FILLER_0_2_171
*632 FILLER_0_2_177
*633 FILLER_0_2_2
*634 FILLER_0_2_241
*635 FILLER_0_2_247
*636 FILLER_0_2_311
*637 FILLER_0_2_317
*638 FILLER_0_2_34
*639 FILLER_0_2_37
*640 FILLER_0_30_101
*641 FILLER_0_30_107
*642 FILLER_0_30_169
*643 FILLER_0_30_173
*644 FILLER_0_30_177
*645 FILLER_0_30_187
*646 FILLER_0_30_219
*647 FILLER_0_30_235
*648 FILLER_0_30_243
*649 FILLER_0_30_247
*650 FILLER_0_30_28
*651 FILLER_0_30_311
*652 FILLER_0_30_317
*653 FILLER_0_30_32
*654 FILLER_0_30_34
*655 FILLER_0_30_37
*656 FILLER_0_31_104
*657 FILLER_0_31_120
*658 FILLER_0_31_132
*659 FILLER_0_31_142
*660 FILLER_0_31_150
*661 FILLER_0_31_156
*662 FILLER_0_31_188
*663 FILLER_0_31_2
*664 FILLER_0_31_204
*665 FILLER_0_31_208
*666 FILLER_0_31_212
*667 FILLER_0_31_276
*668 FILLER_0_31_282
*669 FILLER_0_31_346
*670 FILLER_0_31_348
*671 FILLER_0_31_66
*672 FILLER_0_31_72
*673 FILLER_0_32_101
*674 FILLER_0_32_107
*675 FILLER_0_32_171
*676 FILLER_0_32_177
*677 FILLER_0_32_2
*678 FILLER_0_32_241
*679 FILLER_0_32_247
*680 FILLER_0_32_311
*681 FILLER_0_32_317
*682 FILLER_0_32_34
*683 FILLER_0_32_37
*684 FILLER_0_33_136
*685 FILLER_0_33_142
*686 FILLER_0_33_2
*687 FILLER_0_33_206
*688 FILLER_0_33_212
*689 FILLER_0_33_276
*690 FILLER_0_33_282
*691 FILLER_0_33_346
*692 FILLER_0_33_348
*693 FILLER_0_33_66
*694 FILLER_0_33_72
*695 FILLER_0_34_101
*696 FILLER_0_34_107
*697 FILLER_0_34_171
*698 FILLER_0_34_177
*699 FILLER_0_34_2
*700 FILLER_0_34_241
*701 FILLER_0_34_247
*702 FILLER_0_34_311
*703 FILLER_0_34_317
*704 FILLER_0_34_34
*705 FILLER_0_34_37
*706 FILLER_0_35_136
*707 FILLER_0_35_142
*708 FILLER_0_35_2
*709 FILLER_0_35_206
*710 FILLER_0_35_212
*711 FILLER_0_35_276
*712 FILLER_0_35_282
*713 FILLER_0_35_346
*714 FILLER_0_35_348
*715 FILLER_0_35_66
*716 FILLER_0_35_72
*717 FILLER_0_36_101
*718 FILLER_0_36_107
*719 FILLER_0_36_171
*720 FILLER_0_36_177
*721 FILLER_0_36_2
*722 FILLER_0_36_241
*723 FILLER_0_36_247
*724 FILLER_0_36_311
*725 FILLER_0_36_317
*726 FILLER_0_36_34
*727 FILLER_0_36_37
*728 FILLER_0_37_136
*729 FILLER_0_37_142
*730 FILLER_0_37_2
*731 FILLER_0_37_206
*732 FILLER_0_37_212
*733 FILLER_0_37_276
*734 FILLER_0_37_282
*735 FILLER_0_37_346
*736 FILLER_0_37_348
*737 FILLER_0_37_66
*738 FILLER_0_37_72
*739 FILLER_0_38_101
*740 FILLER_0_38_107
*741 FILLER_0_38_171
*742 FILLER_0_38_177
*743 FILLER_0_38_2
*744 FILLER_0_38_241
*745 FILLER_0_38_247
*746 FILLER_0_38_311
*747 FILLER_0_38_317
*748 FILLER_0_38_34
*749 FILLER_0_38_37
*750 FILLER_0_39_136
*751 FILLER_0_39_142
*752 FILLER_0_39_2
*753 FILLER_0_39_206
*754 FILLER_0_39_212
*755 FILLER_0_39_276
*756 FILLER_0_39_282
*757 FILLER_0_39_346
*758 FILLER_0_39_348
*759 FILLER_0_39_66
*760 FILLER_0_39_72
*761 FILLER_0_3_136
*762 FILLER_0_3_142
*763 FILLER_0_3_2
*764 FILLER_0_3_206
*765 FILLER_0_3_212
*766 FILLER_0_3_276
*767 FILLER_0_3_282
*768 FILLER_0_3_346
*769 FILLER_0_3_348
*770 FILLER_0_3_66
*771 FILLER_0_3_72
*772 FILLER_0_40_101
*773 FILLER_0_40_107
*774 FILLER_0_40_171
*775 FILLER_0_40_177
*776 FILLER_0_40_2
*777 FILLER_0_40_241
*778 FILLER_0_40_247
*779 FILLER_0_40_311
*780 FILLER_0_40_317
*781 FILLER_0_40_34
*782 FILLER_0_40_37
*783 FILLER_0_41_136
*784 FILLER_0_41_142
*785 FILLER_0_41_2
*786 FILLER_0_41_206
*787 FILLER_0_41_212
*788 FILLER_0_41_276
*789 FILLER_0_41_282
*790 FILLER_0_41_346
*791 FILLER_0_41_348
*792 FILLER_0_41_66
*793 FILLER_0_41_72
*794 FILLER_0_42_101
*795 FILLER_0_42_107
*796 FILLER_0_42_171
*797 FILLER_0_42_177
*798 FILLER_0_42_2
*799 FILLER_0_42_241
*800 FILLER_0_42_247
*801 FILLER_0_42_311
*802 FILLER_0_42_317
*803 FILLER_0_42_34
*804 FILLER_0_42_37
*805 FILLER_0_43_136
*806 FILLER_0_43_142
*807 FILLER_0_43_150
*808 FILLER_0_43_154
*809 FILLER_0_43_2
*810 FILLER_0_43_207
*811 FILLER_0_43_209
*812 FILLER_0_43_212
*813 FILLER_0_43_276
*814 FILLER_0_43_282
*815 FILLER_0_43_346
*816 FILLER_0_43_348
*817 FILLER_0_43_66
*818 FILLER_0_43_72
*819 FILLER_0_44_104
*820 FILLER_0_44_138
*821 FILLER_0_44_165
*822 FILLER_0_44_169
*823 FILLER_0_44_172
*824 FILLER_0_44_176
*825 FILLER_0_44_2
*826 FILLER_0_44_232
*827 FILLER_0_44_236
*828 FILLER_0_44_240
*829 FILLER_0_44_274
*830 FILLER_0_44_308
*831 FILLER_0_44_342
*832 FILLER_0_44_346
*833 FILLER_0_44_348
*834 FILLER_0_44_36
*835 FILLER_0_44_70
*836 FILLER_0_4_101
*837 FILLER_0_4_107
*838 FILLER_0_4_171
*839 FILLER_0_4_177
*840 FILLER_0_4_2
*841 FILLER_0_4_241
*842 FILLER_0_4_247
*843 FILLER_0_4_311
*844 FILLER_0_4_317
*845 FILLER_0_4_34
*846 FILLER_0_4_37
*847 FILLER_0_5_136
*848 FILLER_0_5_142
*849 FILLER_0_5_2
*850 FILLER_0_5_206
*851 FILLER_0_5_212
*852 FILLER_0_5_276
*853 FILLER_0_5_282
*854 FILLER_0_5_346
*855 FILLER_0_5_348
*856 FILLER_0_5_66
*857 FILLER_0_5_72
*858 FILLER_0_6_101
*859 FILLER_0_6_107
*860 FILLER_0_6_171
*861 FILLER_0_6_177
*862 FILLER_0_6_2
*863 FILLER_0_6_241
*864 FILLER_0_6_247
*865 FILLER_0_6_311
*866 FILLER_0_6_317
*867 FILLER_0_6_34
*868 FILLER_0_6_37
*869 FILLER_0_7_136
*870 FILLER_0_7_142
*871 FILLER_0_7_2
*872 FILLER_0_7_206
*873 FILLER_0_7_212
*874 FILLER_0_7_276
*875 FILLER_0_7_282
*876 FILLER_0_7_346
*877 FILLER_0_7_348
*878 FILLER_0_7_66
*879 FILLER_0_7_72
*880 FILLER_0_8_101
*881 FILLER_0_8_107
*882 FILLER_0_8_171
*883 FILLER_0_8_177
*884 FILLER_0_8_2
*885 FILLER_0_8_241
*886 FILLER_0_8_247
*887 FILLER_0_8_311
*888 FILLER_0_8_317
*889 FILLER_0_8_34
*890 FILLER_0_8_37
*891 FILLER_0_9_136
*892 FILLER_0_9_142
*893 FILLER_0_9_2
*894 FILLER_0_9_206
*895 FILLER_0_9_212
*896 FILLER_0_9_276
*897 FILLER_0_9_282
*898 FILLER_0_9_346
*899 FILLER_0_9_348
*900 FILLER_0_9_66
*901 FILLER_0_9_72
*902 PHY_EDGE_ROW_0_Left_45
*903 PHY_EDGE_ROW_0_Right_0
*904 PHY_EDGE_ROW_10_Left_55
*905 PHY_EDGE_ROW_10_Right_10
*906 PHY_EDGE_ROW_11_Left_56
*907 PHY_EDGE_ROW_11_Right_11
*908 PHY_EDGE_ROW_12_Left_57
*909 PHY_EDGE_ROW_12_Right_12
*910 PHY_EDGE_ROW_13_Left_58
*911 PHY_EDGE_ROW_13_Right_13
*912 PHY_EDGE_ROW_14_Left_59
*913 PHY_EDGE_ROW_14_Right_14
*914 PHY_EDGE_ROW_15_Left_60
*915 PHY_EDGE_ROW_15_Right_15
*916 PHY_EDGE_ROW_16_Left_61
*917 PHY_EDGE_ROW_16_Right_16
*918 PHY_EDGE_ROW_17_Left_62
*919 PHY_EDGE_ROW_17_Right_17
*920 PHY_EDGE_ROW_18_Left_63
*921 PHY_EDGE_ROW_18_Right_18
*922 PHY_EDGE_ROW_19_Left_64
*923 PHY_EDGE_ROW_19_Right_19
*924 PHY_EDGE_ROW_1_Left_46
*925 PHY_EDGE_ROW_1_Right_1
*926 PHY_EDGE_ROW_20_Left_65
*927 PHY_EDGE_ROW_20_Right_20
*928 PHY_EDGE_ROW_21_Left_66
*929 PHY_EDGE_ROW_21_Right_21
*930 PHY_EDGE_ROW_22_Left_67
*931 PHY_EDGE_ROW_22_Right_22
*932 PHY_EDGE_ROW_23_Left_68
*933 PHY_EDGE_ROW_23_Right_23
*934 PHY_EDGE_ROW_24_Left_69
*935 PHY_EDGE_ROW_24_Right_24
*936 PHY_EDGE_ROW_25_Left_70
*937 PHY_EDGE_ROW_25_Right_25
*938 PHY_EDGE_ROW_26_Left_71
*939 PHY_EDGE_ROW_26_Right_26
*940 PHY_EDGE_ROW_27_Left_72
*941 PHY_EDGE_ROW_27_Right_27
*942 PHY_EDGE_ROW_28_Left_73
*943 PHY_EDGE_ROW_28_Right_28
*944 PHY_EDGE_ROW_29_Left_74
*945 PHY_EDGE_ROW_29_Right_29
*946 PHY_EDGE_ROW_2_Left_47
*947 PHY_EDGE_ROW_2_Right_2
*948 PHY_EDGE_ROW_30_Left_75
*949 PHY_EDGE_ROW_30_Right_30
*950 PHY_EDGE_ROW_31_Left_76
*951 PHY_EDGE_ROW_31_Right_31
*952 PHY_EDGE_ROW_32_Left_77
*953 PHY_EDGE_ROW_32_Right_32
*954 PHY_EDGE_ROW_33_Left_78
*955 PHY_EDGE_ROW_33_Right_33
*956 PHY_EDGE_ROW_34_Left_79
*957 PHY_EDGE_ROW_34_Right_34
*958 PHY_EDGE_ROW_35_Left_80
*959 PHY_EDGE_ROW_35_Right_35
*960 PHY_EDGE_ROW_36_Left_81
*961 PHY_EDGE_ROW_36_Right_36
*962 PHY_EDGE_ROW_37_Left_82
*963 PHY_EDGE_ROW_37_Right_37
*964 PHY_EDGE_ROW_38_Left_83
*965 PHY_EDGE_ROW_38_Right_38
*966 PHY_EDGE_ROW_39_Left_84
*967 PHY_EDGE_ROW_39_Right_39
*968 PHY_EDGE_ROW_3_Left_48
*969 PHY_EDGE_ROW_3_Right_3
*970 PHY_EDGE_ROW_40_Left_85
*971 PHY_EDGE_ROW_40_Right_40
*972 PHY_EDGE_ROW_41_Left_86
*973 PHY_EDGE_ROW_41_Right_41
*974 PHY_EDGE_ROW_42_Left_87
*975 PHY_EDGE_ROW_42_Right_42
*976 PHY_EDGE_ROW_43_Left_88
*977 PHY_EDGE_ROW_43_Right_43
*978 PHY_EDGE_ROW_44_Left_89
*979 PHY_EDGE_ROW_44_Right_44
*980 PHY_EDGE_ROW_4_Left_49
*981 PHY_EDGE_ROW_4_Right_4
*982 PHY_EDGE_ROW_5_Left_50
*983 PHY_EDGE_ROW_5_Right_5
*984 PHY_EDGE_ROW_6_Left_51
*985 PHY_EDGE_ROW_6_Right_6
*986 PHY_EDGE_ROW_7_Left_52
*987 PHY_EDGE_ROW_7_Right_7
*988 PHY_EDGE_ROW_8_Left_53
*989 PHY_EDGE_ROW_8_Right_8
*990 PHY_EDGE_ROW_9_Left_54
*991 PHY_EDGE_ROW_9_Right_9
*992 TAP_TAPCELL_ROW_0_90
*993 TAP_TAPCELL_ROW_0_91
*994 TAP_TAPCELL_ROW_0_92
*995 TAP_TAPCELL_ROW_0_93
*996 TAP_TAPCELL_ROW_0_94
*997 TAP_TAPCELL_ROW_0_95
*998 TAP_TAPCELL_ROW_0_96
*999 TAP_TAPCELL_ROW_0_97
*1000 TAP_TAPCELL_ROW_0_98
*1001 TAP_TAPCELL_ROW_0_99
*1002 TAP_TAPCELL_ROW_10_140
*1003 TAP_TAPCELL_ROW_10_141
*1004 TAP_TAPCELL_ROW_10_142
*1005 TAP_TAPCELL_ROW_10_143
*1006 TAP_TAPCELL_ROW_10_144
*1007 TAP_TAPCELL_ROW_11_145
*1008 TAP_TAPCELL_ROW_11_146
*1009 TAP_TAPCELL_ROW_11_147
*1010 TAP_TAPCELL_ROW_11_148
*1011 TAP_TAPCELL_ROW_12_149
*1012 TAP_TAPCELL_ROW_12_150
*1013 TAP_TAPCELL_ROW_12_151
*1014 TAP_TAPCELL_ROW_12_152
*1015 TAP_TAPCELL_ROW_12_153
*1016 TAP_TAPCELL_ROW_13_154
*1017 TAP_TAPCELL_ROW_13_155
*1018 TAP_TAPCELL_ROW_13_156
*1019 TAP_TAPCELL_ROW_13_157
*1020 TAP_TAPCELL_ROW_14_158
*1021 TAP_TAPCELL_ROW_14_159
*1022 TAP_TAPCELL_ROW_14_160
*1023 TAP_TAPCELL_ROW_14_161
*1024 TAP_TAPCELL_ROW_14_162
*1025 TAP_TAPCELL_ROW_15_163
*1026 TAP_TAPCELL_ROW_15_164
*1027 TAP_TAPCELL_ROW_15_165
*1028 TAP_TAPCELL_ROW_15_166
*1029 TAP_TAPCELL_ROW_16_167
*1030 TAP_TAPCELL_ROW_16_168
*1031 TAP_TAPCELL_ROW_16_169
*1032 TAP_TAPCELL_ROW_16_170
*1033 TAP_TAPCELL_ROW_16_171
*1034 TAP_TAPCELL_ROW_17_172
*1035 TAP_TAPCELL_ROW_17_173
*1036 TAP_TAPCELL_ROW_17_174
*1037 TAP_TAPCELL_ROW_17_175
*1038 TAP_TAPCELL_ROW_18_176
*1039 TAP_TAPCELL_ROW_18_177
*1040 TAP_TAPCELL_ROW_18_178
*1041 TAP_TAPCELL_ROW_18_179
*1042 TAP_TAPCELL_ROW_18_180
*1043 TAP_TAPCELL_ROW_19_181
*1044 TAP_TAPCELL_ROW_19_182
*1045 TAP_TAPCELL_ROW_19_183
*1046 TAP_TAPCELL_ROW_19_184
*1047 TAP_TAPCELL_ROW_1_100
*1048 TAP_TAPCELL_ROW_1_101
*1049 TAP_TAPCELL_ROW_1_102
*1050 TAP_TAPCELL_ROW_1_103
*1051 TAP_TAPCELL_ROW_20_185
*1052 TAP_TAPCELL_ROW_20_186
*1053 TAP_TAPCELL_ROW_20_187
*1054 TAP_TAPCELL_ROW_20_188
*1055 TAP_TAPCELL_ROW_20_189
*1056 TAP_TAPCELL_ROW_21_190
*1057 TAP_TAPCELL_ROW_21_191
*1058 TAP_TAPCELL_ROW_21_192
*1059 TAP_TAPCELL_ROW_21_193
*1060 TAP_TAPCELL_ROW_22_194
*1061 TAP_TAPCELL_ROW_22_195
*1062 TAP_TAPCELL_ROW_22_196
*1063 TAP_TAPCELL_ROW_22_197
*1064 TAP_TAPCELL_ROW_22_198
*1065 TAP_TAPCELL_ROW_23_199
*1066 TAP_TAPCELL_ROW_23_200
*1067 TAP_TAPCELL_ROW_23_201
*1068 TAP_TAPCELL_ROW_23_202
*1069 TAP_TAPCELL_ROW_24_203
*1070 TAP_TAPCELL_ROW_24_204
*1071 TAP_TAPCELL_ROW_24_205
*1072 TAP_TAPCELL_ROW_24_206
*1073 TAP_TAPCELL_ROW_24_207
*1074 TAP_TAPCELL_ROW_25_208
*1075 TAP_TAPCELL_ROW_25_209
*1076 TAP_TAPCELL_ROW_25_210
*1077 TAP_TAPCELL_ROW_25_211
*1078 TAP_TAPCELL_ROW_26_212
*1079 TAP_TAPCELL_ROW_26_213
*1080 TAP_TAPCELL_ROW_26_214
*1081 TAP_TAPCELL_ROW_26_215
*1082 TAP_TAPCELL_ROW_26_216
*1083 TAP_TAPCELL_ROW_27_217
*1084 TAP_TAPCELL_ROW_27_218
*1085 TAP_TAPCELL_ROW_27_219
*1086 TAP_TAPCELL_ROW_27_220
*1087 TAP_TAPCELL_ROW_28_221
*1088 TAP_TAPCELL_ROW_28_222
*1089 TAP_TAPCELL_ROW_28_223
*1090 TAP_TAPCELL_ROW_28_224
*1091 TAP_TAPCELL_ROW_28_225
*1092 TAP_TAPCELL_ROW_29_226
*1093 TAP_TAPCELL_ROW_29_227
*1094 TAP_TAPCELL_ROW_29_228
*1095 TAP_TAPCELL_ROW_29_229
*1096 TAP_TAPCELL_ROW_2_104
*1097 TAP_TAPCELL_ROW_2_105
*1098 TAP_TAPCELL_ROW_2_106
*1099 TAP_TAPCELL_ROW_2_107
*1100 TAP_TAPCELL_ROW_2_108
*1101 TAP_TAPCELL_ROW_30_230
*1102 TAP_TAPCELL_ROW_30_231
*1103 TAP_TAPCELL_ROW_30_232
*1104 TAP_TAPCELL_ROW_30_233
*1105 TAP_TAPCELL_ROW_30_234
*1106 TAP_TAPCELL_ROW_31_235
*1107 TAP_TAPCELL_ROW_31_236
*1108 TAP_TAPCELL_ROW_31_237
*1109 TAP_TAPCELL_ROW_31_238
*1110 TAP_TAPCELL_ROW_32_239
*1111 TAP_TAPCELL_ROW_32_240
*1112 TAP_TAPCELL_ROW_32_241
*1113 TAP_TAPCELL_ROW_32_242
*1114 TAP_TAPCELL_ROW_32_243
*1115 TAP_TAPCELL_ROW_33_244
*1116 TAP_TAPCELL_ROW_33_245
*1117 TAP_TAPCELL_ROW_33_246
*1118 TAP_TAPCELL_ROW_33_247
*1119 TAP_TAPCELL_ROW_34_248
*1120 TAP_TAPCELL_ROW_34_249
*1121 TAP_TAPCELL_ROW_34_250
*1122 TAP_TAPCELL_ROW_34_251
*1123 TAP_TAPCELL_ROW_34_252
*1124 TAP_TAPCELL_ROW_35_253
*1125 TAP_TAPCELL_ROW_35_254
*1126 TAP_TAPCELL_ROW_35_255
*1127 TAP_TAPCELL_ROW_35_256
*1128 TAP_TAPCELL_ROW_36_257
*1129 TAP_TAPCELL_ROW_36_258
*1130 TAP_TAPCELL_ROW_36_259
*1131 TAP_TAPCELL_ROW_36_260
*1132 TAP_TAPCELL_ROW_36_261
*1133 TAP_TAPCELL_ROW_37_262
*1134 TAP_TAPCELL_ROW_37_263
*1135 TAP_TAPCELL_ROW_37_264
*1136 TAP_TAPCELL_ROW_37_265
*1137 TAP_TAPCELL_ROW_38_266
*1138 TAP_TAPCELL_ROW_38_267
*1139 TAP_TAPCELL_ROW_38_268
*1140 TAP_TAPCELL_ROW_38_269
*1141 TAP_TAPCELL_ROW_38_270
*1142 TAP_TAPCELL_ROW_39_271
*1143 TAP_TAPCELL_ROW_39_272
*1144 TAP_TAPCELL_ROW_39_273
*1145 TAP_TAPCELL_ROW_39_274
*1146 TAP_TAPCELL_ROW_3_109
*1147 TAP_TAPCELL_ROW_3_110
*1148 TAP_TAPCELL_ROW_3_111
*1149 TAP_TAPCELL_ROW_3_112
*1150 TAP_TAPCELL_ROW_40_275
*1151 TAP_TAPCELL_ROW_40_276
*1152 TAP_TAPCELL_ROW_40_277
*1153 TAP_TAPCELL_ROW_40_278
*1154 TAP_TAPCELL_ROW_40_279
*1155 TAP_TAPCELL_ROW_41_280
*1156 TAP_TAPCELL_ROW_41_281
*1157 TAP_TAPCELL_ROW_41_282
*1158 TAP_TAPCELL_ROW_41_283
*1159 TAP_TAPCELL_ROW_42_284
*1160 TAP_TAPCELL_ROW_42_285
*1161 TAP_TAPCELL_ROW_42_286
*1162 TAP_TAPCELL_ROW_42_287
*1163 TAP_TAPCELL_ROW_42_288
*1164 TAP_TAPCELL_ROW_43_289
*1165 TAP_TAPCELL_ROW_43_290
*1166 TAP_TAPCELL_ROW_43_291
*1167 TAP_TAPCELL_ROW_43_292
*1168 TAP_TAPCELL_ROW_44_293
*1169 TAP_TAPCELL_ROW_44_294
*1170 TAP_TAPCELL_ROW_44_295
*1171 TAP_TAPCELL_ROW_44_296
*1172 TAP_TAPCELL_ROW_44_297
*1173 TAP_TAPCELL_ROW_44_298
*1174 TAP_TAPCELL_ROW_44_299
*1175 TAP_TAPCELL_ROW_44_300
*1176 TAP_TAPCELL_ROW_44_301
*1177 TAP_TAPCELL_ROW_44_302
*1178 TAP_TAPCELL_ROW_4_113
*1179 TAP_TAPCELL_ROW_4_114
*1180 TAP_TAPCELL_ROW_4_115
*1181 TAP_TAPCELL_ROW_4_116
*1182 TAP_TAPCELL_ROW_4_117
*1183 TAP_TAPCELL_ROW_5_118
*1184 TAP_TAPCELL_ROW_5_119
*1185 TAP_TAPCELL_ROW_5_120
*1186 TAP_TAPCELL_ROW_5_121
*1187 TAP_TAPCELL_ROW_6_122
*1188 TAP_TAPCELL_ROW_6_123
*1189 TAP_TAPCELL_ROW_6_124
*1190 TAP_TAPCELL_ROW_6_125
*1191 TAP_TAPCELL_ROW_6_126
*1192 TAP_TAPCELL_ROW_7_127
*1193 TAP_TAPCELL_ROW_7_128
*1194 TAP_TAPCELL_ROW_7_129
*1195 TAP_TAPCELL_ROW_7_130
*1196 TAP_TAPCELL_ROW_8_131
*1197 TAP_TAPCELL_ROW_8_132
*1198 TAP_TAPCELL_ROW_8_133
*1199 TAP_TAPCELL_ROW_8_134
*1200 TAP_TAPCELL_ROW_8_135
*1201 TAP_TAPCELL_ROW_9_136
*1202 TAP_TAPCELL_ROW_9_137
*1203 TAP_TAPCELL_ROW_9_138
*1204 TAP_TAPCELL_ROW_9_139
*1205 _104_
*1206 _105_
*1207 _106_
*1208 _107_
*1209 _108_
*1210 _109_
*1211 _110_
*1212 _111_
*1213 _112_
*1214 _113_
*1215 _114_
*1216 _115_
*1217 _116_
*1218 _117_
*1219 _118_
*1220 _119_
*1221 _120_
*1222 _121_
*1223 _122_
*1224 _123_
*1225 _124_
*1226 _125_
*1227 _126_
*1228 _127_
*1229 _128_
*1230 _129_
*1231 _130_
*1232 _131_
*1233 _132_
*1234 _133_
*1235 _134_
*1236 _135_
*1237 _136_
*1238 _137_
*1239 _138_
*1240 _139_
*1241 _140_
*1242 _141_
*1243 _142_
*1244 _143_
*1245 _144_
*1246 _145_
*1247 _146_
*1248 _147_
*1249 _148_
*1250 _149_
*1251 _150_
*1252 _151_
*1253 _152_
*1254 _153_
*1255 _154_
*1256 _155_
*1257 _156_
*1258 _157_
*1259 _158_
*1260 _159_
*1261 _160_
*1262 _161_
*1263 _162_
*1264 _163_
*1265 _164_
*1266 _165_
*1267 _166_
*1268 _167_
*1269 _168_
*1270 _169_
*1271 _170_
*1272 _171_
*1273 _172_
*1274 _173_
*1275 _174_
*1276 _175_
*1277 _176_
*1278 _177_
*1279 _178_
*1280 _179_
*1281 _180_
*1282 _181_
*1283 _182_
*1284 _183_
*1285 _184_
*1286 _185_
*1287 _186_
*1288 _187_
*1289 _188_
*1290 _189_
*1291 _190_
*1292 _191_
*1293 _192_
*1294 _193_
*1295 _194_
*1296 _195_
*1297 _196_
*1298 _197_
*1299 _198_
*1300 _199_
*1301 _200_
*1302 _201_
*1303 _202_
*1304 _203_
*1305 _204_
*1306 _205_
*1307 _206_
*1308 _207_
*1309 _208_
*1310 _209_
*1311 _210_
*1312 _211_
*1313 _212_
*1314 _213_
*1315 _214_
*1316 _215_
*1317 _216_
*1318 _217_
*1319 _218_
*1320 _219_
*1321 _220_
*1322 _221_
*1323 _222_
*1324 _223_
*1325 _224_
*1326 _225_
*1327 _226_
*1328 _227_
*1329 _228_
*1330 _229_
*1331 _230_
*1332 _231_
*1333 _232_
*1334 _236_
*1335 _237_
*1336 clkbuf_0_clk
*1337 clkbuf_1_0__f_clk
*1338 clkbuf_1_1__f_clk
*1339 ita62_24
*1340 ita62_25
*1341 ita62_26
*1342 output1
*1343 output10
*1344 output11
*1345 output12
*1346 output13
*1347 output14
*1348 output15
*1349 output16
*1350 output17
*1351 output18
*1352 output19
*1353 output2
*1354 output20
*1355 output21
*1356 output22
*1357 output23
*1358 output3
*1359 output4
*1360 output5
*1361 output6
*1362 output7
*1363 output8
*1364 output9

*PORTS
clk I
segm[0] O
segm[10] O
segm[11] O
segm[12] O
segm[13] O
segm[1] O
segm[2] O
segm[3] O
segm[4] O
segm[5] O
segm[6] O
segm[7] O
segm[8] O
segm[9] O
sel[0] O
sel[10] O
sel[11] O
sel[1] O
sel[2] O
sel[3] O
sel[4] O
sel[5] O
sel[6] O
sel[7] O
sel[8] O
sel[9] O

*D_NET *1 0.0175431
*CONN
*P clk I
*I *1336:I I *D gf180mcu_fd_sc_mcu7t5v0__clkbuf_16
*I *196:I I *D gf180mcu_fd_sc_mcu7t5v0__antenna
*CAP
1 clk 0.0041869
2 *1336:I 0.000466308
3 *196:I 0.000246968
4 *1:13 0.00490017
5 *196:I *1228:A1 9.85004e-05
6 *196:I *1228:A2 4.6613e-06
7 *196:I *1287:A2 0.000225322
8 *196:I *136:8 2.2785e-05
9 *1336:I *1228:A1 0.000112966
10 *1336:I *1236:I 3.58434e-05
11 *1336:I *1247:I 0.000258134
12 *1336:I *83:18 4.45729e-05
13 *1336:I *113:46 1.70821e-05
14 *1336:I *114:10 0.000199701
15 *1336:I *131:16 0.000191824
16 *1:13 sel[7] 6.66205e-05
17 *1:13 *173:I 0.000171254
18 *1:13 *1224:A2 8.31054e-06
19 *1:13 *1234:A1 8.19976e-05
20 *1:13 *1281:I 0.00255908
21 *1:13 *1325:D 0.000356898
22 *1:13 *1355:I 0.000294421
23 *1:13 *1361:I 0.000661929
24 *1:13 *75:12 0
25 *1:13 *110:10 7.67639e-05
26 *1:13 *110:12 5.22588e-06
27 *1:13 *114:10 0.00221491
28 *1:13 *131:16 3.3982e-05
*RES
1 clk *1:13 48.825 
2 *1:13 *196:I 11.25 
3 *1:13 *1336:I 13.5 
*END

*D_NET *2 0.00124753
*CONN
*P segm[0] O
*I *1339:ZN O *D gf180mcu_fd_sc_mcu7t5v0__tiel
*CAP
1 segm[0] 0.000623764
2 *1339:ZN 0.000623764
*RES
1 *1339:ZN segm[0] 9.135 
*END

*D_NET *3 0.00172478
*CONN
*P segm[10] O
*I *1342:Z O *D gf180mcu_fd_sc_mcu7t5v0__buf_8
*CAP
1 segm[10] 0.000862392
2 *1342:Z 0.000862392
*RES
1 *1342:Z segm[10] 10.755 
*END

*D_NET *4 0.000810115
*CONN
*P segm[11] O
*I *1353:Z O *D gf180mcu_fd_sc_mcu7t5v0__buf_8
*CAP
1 segm[11] 0.000376493
2 *1353:Z 0.000376493
3 segm[11] segm[3] 5.71292e-05
*RES
1 *1353:Z segm[11] 11.835 
*END

*D_NET *5 0.00244649
*CONN
*P segm[12] O
*I *1358:Z O *D gf180mcu_fd_sc_mcu7t5v0__buf_8
*CAP
1 segm[12] 0.00122071