*SPEF "ieee 1481-1999"
*DESIGN "ita60"
*DATE "11:11:11 Fri 11 11, 1111"
*VENDOR "OpenRCX"
*PROGRAM "Parallel Extraction"
*VERSION "1.0"
*DESIGN_FLOW "NAME_SCOPE LOCAL" "PIN_CAP NONE"
*DIVIDER /
*DELIMITER :
*BUS_DELIMITER []
*T_UNIT 1 NS
*C_UNIT 1 PF
*R_UNIT 1 OHM
*L_UNIT 1 HENRY

*NAME_MAP
*1 clk
*2 net24
*3 segm[10]
*4 segm[11]
*5 segm[12]
*6 segm[13]
*7 segm[1]
*8 segm[2]
*9 net25
*10 segm[4]
*11 net26
*12 segm[6]
*13 segm[7]
*14 segm[8]
*15 segm[9]
*16 sel[0]
*17 sel[10]
*18 sel[11]
*19 sel[1]
*20 sel[2]
*21 sel[3]
*22 sel[4]
*23 sel[5]
*24 sel[6]
*25 sel[7]
*26 sel[8]
*27 sel[9]
*30 _000_
*31 _001_
*32 _002_
*33 _003_
*34 _004_
*35 _005_
*36 _006_
*37 _007_
*38 _008_
*39 _009_
*40 _010_
*41 _011_
*42 _012_
*43 _013_
*44 _014_
*45 _015_
*46 _016_
*47 _017_
*48 _018_
*49 _019_
*50 _020_
*51 _021_
*52 _022_
*53 _023_
*54 _024_
*55 _025_
*56 _026_
*57 _027_
*58 _028_
*59 _029_
*60 _030_
*61 _031_
*62 _032_
*63 _033_
*64 _034_
*65 _035_
*66 _036_
*67 _037_
*68 _038_
*69 _039_
*70 _040_
*71 _041_
*72 _042_
*73 _043_
*74 _044_
*75 _045_
*76 _046_
*77 _047_
*78 _048_
*79 _049_
*80 _050_
*81 _051_
*82 _052_
*83 _053_
*84 _054_
*85 _055_
*86 _056_
*87 _057_
*88 _058_
*89 _059_
*90 _060_
*91 _061_
*92 _062_
*93 _063_
*94 _064_
*95 _065_
*96 _066_
*97 _067_
*98 _068_
*99 _069_
*100 _070_
*101 _071_
*102 _072_
*103 _073_
*104 _074_
*105 _075_
*106 _076_
*107 _077_
*108 _078_
*109 _079_
*110 _080_
*111 _081_
*112 _082_
*113 _083_
*114 _084_
*115 _085_
*116 _086_
*117 _087_
*118 _088_
*119 _089_
*120 _090_
*121 _091_
*122 _092_
*123 _093_
*124 _094_
*125 _095_
*126 _096_
*127 _097_
*128 _098_
*129 _099_
*130 _100_
*131 _101_
*132 _102_
*133 _103_
*134 _104_
*135 clknet_0_clk
*136 clknet_1_0__leaf_clk
*137 clknet_1_1__leaf_clk
*138 dut60\.count\[0\]
*139 dut60\.count\[1\]
*140 dut60\.count\[2\]
*141 dut60\.count\[3\]
*142 net1
*143 net10
*144 net11
*145 net12
*146 net13
*147 net14
*148 net15
*149 net16
*150 net17
*151 net18
*152 net19
*153 net2
*154 net20
*155 net21
*156 net22
*157 net23
*158 net3
*159 net4
*160 net5
*161 net6
*162 net7
*163 net8
*164 net9
*165 ANTENNA__144__B
*166 ANTENNA__164__B
*167 ANTENNA__177__A1
*168 ANTENNA__209__A1
*169 ANTENNA__210__CLK
*170 ANTENNA__211__CLK
*171 ANTENNA__212__CLK
*172 ANTENNA__213__CLK
*173 ANTENNA__214__CLK
*174 ANTENNA__215__CLK
*175 ANTENNA__216__CLK
*176 ANTENNA__217__CLK
*177 ANTENNA__218__CLK
*178 ANTENNA__219__CLK
*179 ANTENNA__220__CLK
*180 ANTENNA__221__CLK
*181 ANTENNA__222__CLK
*182 ANTENNA__223__CLK
*183 ANTENNA__224__CLK
*184 ANTENNA__225__CLK
*185 ANTENNA__226__CLK
*186 ANTENNA__227__CLK
*187 ANTENNA__228__CLK
*188 ANTENNA__229__CLK
*189 ANTENNA__230__CLK
*190 ANTENNA__231__CLK
*191 ANTENNA__232__CLK
*192 ANTENNA__233__CLK
*193 ANTENNA__234__CLK
*194 ANTENNA_clkbuf_0_clk_I
*195 FILLER_0_0_104
*196 FILLER_0_0_138
*197 FILLER_0_0_142
*198 FILLER_0_0_172
*199 FILLER_0_0_174
*200 FILLER_0_0_2
*201 FILLER_0_0_201
*202 FILLER_0_0_203
*203 FILLER_0_0_232
*204 FILLER_0_0_236
*205 FILLER_0_0_240
*206 FILLER_0_0_274
*207 FILLER_0_0_308
*208 FILLER_0_0_342
*209 FILLER_0_0_346
*210 FILLER_0_0_348
*211 FILLER_0_0_36
*212 FILLER_0_0_70
*213 FILLER_0_10_101
*214 FILLER_0_10_107
*215 FILLER_0_10_171
*216 FILLER_0_10_177
*217 FILLER_0_10_2
*218 FILLER_0_10_241
*219 FILLER_0_10_247
*220 FILLER_0_10_311
*221 FILLER_0_10_317
*222 FILLER_0_10_34
*223 FILLER_0_10_37
*224 FILLER_0_11_136
*225 FILLER_0_11_142
*226 FILLER_0_11_2
*227 FILLER_0_11_206
*228 FILLER_0_11_212
*229 FILLER_0_11_276
*230 FILLER_0_11_282
*231 FILLER_0_11_346
*232 FILLER_0_11_348
*233 FILLER_0_11_66
*234 FILLER_0_11_72
*235 FILLER_0_12_101
*236 FILLER_0_12_107
*237 FILLER_0_12_115
*238 FILLER_0_12_148
*239 FILLER_0_12_152
*240 FILLER_0_12_168
*241 FILLER_0_12_172
*242 FILLER_0_12_174
*243 FILLER_0_12_177
*244 FILLER_0_12_2
*245 FILLER_0_12_241
*246 FILLER_0_12_247
*247 FILLER_0_12_311
*248 FILLER_0_12_317
*249 FILLER_0_12_34
*250 FILLER_0_12_37
*251 FILLER_0_13_136
*252 FILLER_0_13_142
*253 FILLER_0_13_150
*254 FILLER_0_13_154
*255 FILLER_0_13_185
*256 FILLER_0_13_189
*257 FILLER_0_13_2
*258 FILLER_0_13_205
*259 FILLER_0_13_209
*260 FILLER_0_13_212
*261 FILLER_0_13_276
*262 FILLER_0_13_282
*263 FILLER_0_13_346
*264 FILLER_0_13_348
*265 FILLER_0_13_66
*266 FILLER_0_13_72
*267 FILLER_0_14_101
*268 FILLER_0_14_107
*269 FILLER_0_14_123
*270 FILLER_0_14_131
*271 FILLER_0_14_161
*272 FILLER_0_14_165
*273 FILLER_0_14_173
*274 FILLER_0_14_177
*275 FILLER_0_14_181
*276 FILLER_0_14_2
*277 FILLER_0_14_212
*278 FILLER_0_14_216
*279 FILLER_0_14_232
*280 FILLER_0_14_240
*281 FILLER_0_14_244
*282 FILLER_0_14_247
*283 FILLER_0_14_311
*284 FILLER_0_14_317
*285 FILLER_0_14_34
*286 FILLER_0_14_37
*287 FILLER_0_15_117
*288 FILLER_0_15_121
*289 FILLER_0_15_129
*290 FILLER_0_15_131
*291 FILLER_0_15_142
*292 FILLER_0_15_177
*293 FILLER_0_15_185
*294 FILLER_0_15_189
*295 FILLER_0_15_196
*296 FILLER_0_15_2
*297 FILLER_0_15_204
*298 FILLER_0_15_208
*299 FILLER_0_15_217
*300 FILLER_0_15_227
*301 FILLER_0_15_259
*302 FILLER_0_15_275
*303 FILLER_0_15_279
*304 FILLER_0_15_282
*305 FILLER_0_15_346
*306 FILLER_0_15_348
*307 FILLER_0_15_66
*308 FILLER_0_15_72
*309 FILLER_0_16_101
*310 FILLER_0_16_107
*311 FILLER_0_16_109
*312 FILLER_0_16_123
*313 FILLER_0_16_139
*314 FILLER_0_16_143
*315 FILLER_0_16_150
*316 FILLER_0_16_157
*317 FILLER_0_16_167
*318 FILLER_0_16_177
*319 FILLER_0_16_193
*320 FILLER_0_16_195
*321 FILLER_0_16_2
*322 FILLER_0_16_225
*323 FILLER_0_16_235
*324 FILLER_0_16_243
*325 FILLER_0_16_253
*326 FILLER_0_16_285
*327 FILLER_0_16_301
*328 FILLER_0_16_309
*329 FILLER_0_16_313
*330 FILLER_0_16_317
*331 FILLER_0_16_321
*332 FILLER_0_16_34
*333 FILLER_0_16_37
*334 FILLER_0_17_125
*335 FILLER_0_17_129
*336 FILLER_0_17_137
*337 FILLER_0_17_139
*338 FILLER_0_17_142
*339 FILLER_0_17_150
*340 FILLER_0_17_154
*341 FILLER_0_17_162
*342 FILLER_0_17_178
*343 FILLER_0_17_182
*344 FILLER_0_17_199
*345 FILLER_0_17_201
*346 FILLER_0_17_212
*347 FILLER_0_17_220
*348 FILLER_0_17_224
*349 FILLER_0_17_254
*350 FILLER_0_17_258
*351 FILLER_0_17_274
*352 FILLER_0_17_278
*353 FILLER_0_17_28
*354 FILLER_0_17_282
*355 FILLER_0_17_314
*356 FILLER_0_17_322
*357 FILLER_0_17_60
*358 FILLER_0_17_68
*359 FILLER_0_17_72
*360 FILLER_0_18_101
*361 FILLER_0_18_107
*362 FILLER_0_18_111
*363 FILLER_0_18_122
*364 FILLER_0_18_154
*365 FILLER_0_18_162
*366 FILLER_0_18_171
*367 FILLER_0_18_183
*368 FILLER_0_18_199
*369 FILLER_0_18_207
*370 FILLER_0_18_243
*371 FILLER_0_18_247
*372 FILLER_0_18_251
*373 FILLER_0_18_28
*374 FILLER_0_18_317
*375 FILLER_0_18_32
*376 FILLER_0_18_321
*377 FILLER_0_18_34
*378 FILLER_0_18_37
*379 FILLER_0_19_100
*380 FILLER_0_19_130
*381 FILLER_0_19_134
*382 FILLER_0_19_138
*383 FILLER_0_19_142
*384 FILLER_0_19_150
*385 FILLER_0_19_152
*386 FILLER_0_19_168
*387 FILLER_0_19_194
*388 FILLER_0_19_2
*389 FILLER_0_19_223
*390 FILLER_0_19_225
*391 FILLER_0_19_259
*392 FILLER_0_19_275
*393 FILLER_0_19_279
*394 FILLER_0_19_282
*395 FILLER_0_19_314
*396 FILLER_0_19_322
*397 FILLER_0_19_66
*398 FILLER_0_19_72
*399 FILLER_0_19_88
*400 FILLER_0_19_96
*401 FILLER_0_1_136
*402 FILLER_0_1_142
*403 FILLER_0_1_150
*404 FILLER_0_1_155
*405 FILLER_0_1_183
*406 FILLER_0_1_199
*407 FILLER_0_1_2
*408 FILLER_0_1_207
*409 FILLER_0_1_209
*410 FILLER_0_1_212
*411 FILLER_0_1_276
*412 FILLER_0_1_282
*413 FILLER_0_1_346
*414 FILLER_0_1_348
*415 FILLER_0_1_66
*416 FILLER_0_1_72
*417 FILLER_0_20_119
*418 FILLER_0_20_127
*419 FILLER_0_20_129
*420 FILLER_0_20_146
*421 FILLER_0_20_165
*422 FILLER_0_20_177
*423 FILLER_0_20_188
*424 FILLER_0_20_2
*425 FILLER_0_20_203
*426 FILLER_0_20_219
*427 FILLER_0_20_227
*428 FILLER_0_20_230
*429 FILLER_0_20_232
*430 FILLER_0_20_235
*431 FILLER_0_20_243
*432 FILLER_0_20_247
*433 FILLER_0_20_311
*434 FILLER_0_20_317
*435 FILLER_0_20_34
*436 FILLER_0_20_37
*437 FILLER_0_20_69
*438 FILLER_0_20_85
*439 FILLER_0_20_93
*440 FILLER_0_20_97
*441 FILLER_0_21_118
*442 FILLER_0_21_122
*443 FILLER_0_21_130
*444 FILLER_0_21_150
*445 FILLER_0_21_2
*446 FILLER_0_21_212
*447 FILLER_0_21_220
*448 FILLER_0_21_224
*449 FILLER_0_21_226
*450 FILLER_0_21_264
*451 FILLER_0_21_282
*452 FILLER_0_21_314
*453 FILLER_0_21_330
*454 FILLER_0_21_338
*455 FILLER_0_21_342
*456 FILLER_0_21_344
*457 FILLER_0_21_66
*458 FILLER_0_21_72
*459 FILLER_0_21_88
*460 FILLER_0_22_101
*461 FILLER_0_22_107
*462 FILLER_0_22_111
*463 FILLER_0_22_121
*464 FILLER_0_22_129
*465 FILLER_0_22_137
*466 FILLER_0_22_141
*467 FILLER_0_22_173
*468 FILLER_0_22_185
*469 FILLER_0_22_2
*470 FILLER_0_22_261
*471 FILLER_0_22_293
*472 FILLER_0_22_309
*473 FILLER_0_22_313
*474 FILLER_0_22_317
*475 FILLER_0_22_321
*476 FILLER_0_22_34
*477 FILLER_0_22_37
*478 FILLER_0_23_104
*479 FILLER_0_23_120
*480 FILLER_0_23_128
*481 FILLER_0_23_198
*482 FILLER_0_23_2
*483 FILLER_0_23_206
*484 FILLER_0_23_241
*485 FILLER_0_23_243
*486 FILLER_0_23_248
*487 FILLER_0_23_252
*488 FILLER_0_23_268
*489 FILLER_0_23_276
*490 FILLER_0_23_282
*491 FILLER_0_23_314
*492 FILLER_0_23_322
*493 FILLER_0_23_66
*494 FILLER_0_23_72
*495 FILLER_0_24_101
*496 FILLER_0_24_107
*497 FILLER_0_24_116
*498 FILLER_0_24_124
*499 FILLER_0_24_128
*500 FILLER_0_24_157
*501 FILLER_0_24_167
*502 FILLER_0_24_177
*503 FILLER_0_24_2
*504 FILLER_0_24_227
*505 FILLER_0_24_235
*506 FILLER_0_24_237
*507 FILLER_0_24_247
*508 FILLER_0_24_311
*509 FILLER_0_24_317
*510 FILLER_0_24_34
*511 FILLER_0_24_37
*512 FILLER_0_25_119
*513 FILLER_0_25_123
*514 FILLER_0_25_131
*515 FILLER_0_25_135
*516 FILLER_0_25_137
*517 FILLER_0_25_212
*518 FILLER_0_25_228
*519 FILLER_0_25_232
*520 FILLER_0_25_264
*521 FILLER_0_25_28
*522 FILLER_0_25_282
*523 FILLER_0_25_346
*524 FILLER_0_25_348
*525 FILLER_0_25_60
*526 FILLER_0_25_68
*527 FILLER_0_25_72
*528 FILLER_0_25_80
*529 FILLER_0_26_107
*530 FILLER_0_26_111
*531 FILLER_0_26_120
*532 FILLER_0_26_124
*533 FILLER_0_26_132
*534 FILLER_0_26_136
*535 FILLER_0_26_138
*536 FILLER_0_26_149
*537 FILLER_0_26_151
*538 FILLER_0_26_167
*539 FILLER_0_26_185
*540 FILLER_0_26_195
*541 FILLER_0_26_2
*542 FILLER_0_26_206
*543 FILLER_0_26_214
*544 FILLER_0_26_218
*545 FILLER_0_26_233
*546 FILLER_0_26_240
*547 FILLER_0_26_244
*548 FILLER_0_26_252
*549 FILLER_0_26_284
*550 FILLER_0_26_300
*551 FILLER_0_26_308
*552 FILLER_0_26_312
*553 FILLER_0_26_314
*554 FILLER_0_26_317
*555 FILLER_0_26_321
*556 FILLER_0_26_34
*557 FILLER_0_26_37
*558 FILLER_0_26_69
*559 FILLER_0_26_85
*560 FILLER_0_26_93
*561 FILLER_0_26_97
*562 FILLER_0_27_118
*563 FILLER_0_27_120
*564 FILLER_0_27_135
*565 FILLER_0_27_139
*566 FILLER_0_27_142
*567 FILLER_0_27_158
*568 FILLER_0_27_162
*569 FILLER_0_27_194
*570 FILLER_0_27_212
*571 FILLER_0_27_216
*572 FILLER_0_27_246
*573 FILLER_0_27_250
*574 FILLER_0_27_266
*575 FILLER_0_27_274
*576 FILLER_0_27_278
*577 FILLER_0_27_28
*578 FILLER_0_27_282
*579 FILLER_0_27_346
*580 FILLER_0_27_348
*581 FILLER_0_27_60
*582 FILLER_0_27_68
*583 FILLER_0_27_72
*584 FILLER_0_27_88
*585 FILLER_0_28_101
*586 FILLER_0_28_136
*587 FILLER_0_28_140
*588 FILLER_0_28_156
*589 FILLER_0_28_164
*590 FILLER_0_28_168
*591 FILLER_0_28_177
*592 FILLER_0_28_187
*593 FILLER_0_28_203
*594 FILLER_0_28_207
*595 FILLER_0_28_209
*596 FILLER_0_28_216
*597 FILLER_0_28_222
*598 FILLER_0_28_238
*599 FILLER_0_28_242
*600 FILLER_0_28_244
*601 FILLER_0_28_247
*602 FILLER_0_28_28
*603 FILLER_0_28_311
*604 FILLER_0_28_317
*605 FILLER_0_28_32
*606 FILLER_0_28_321
*607 FILLER_0_28_34
*608 FILLER_0_28_37
*609 FILLER_0_29_136
*610 FILLER_0_29_148
*611 FILLER_0_29_150
*612 FILLER_0_29_157
*613 FILLER_0_29_190
*614 FILLER_0_29_194
*615 FILLER_0_29_2
*616 FILLER_0_29_200
*617 FILLER_0_29_206
*618 FILLER_0_29_241
*619 FILLER_0_29_245
*620 FILLER_0_29_277
*621 FILLER_0_29_279
*622 FILLER_0_29_282
*623 FILLER_0_29_346
*624 FILLER_0_29_348
*625 FILLER_0_29_66
*626 FILLER_0_29_72
*627 FILLER_0_2_101
*628 FILLER_0_2_107
*629 FILLER_0_2_171
*630 FILLER_0_2_177
*631 FILLER_0_2_2
*632 FILLER_0_2_241
*633 FILLER_0_2_247
*634 FILLER_0_2_311
*635 FILLER_0_2_317
*636 FILLER_0_2_34
*637 FILLER_0_2_37
*638 FILLER_0_30_101
*639 FILLER_0_30_107
*640 FILLER_0_30_123
*641 FILLER_0_30_161
*642 FILLER_0_30_177
*643 FILLER_0_30_183
*644 FILLER_0_30_2
*645 FILLER_0_30_219
*646 FILLER_0_30_223
*647 FILLER_0_30_239
*648 FILLER_0_30_243
*649 FILLER_0_30_247
*650 FILLER_0_30_311
*651 FILLER_0_30_317
*652 FILLER_0_30_321
*653 FILLER_0_30_34
*654 FILLER_0_30_37
*655 FILLER_0_31_136
*656 FILLER_0_31_142
*657 FILLER_0_31_173
*658 FILLER_0_31_177
*659 FILLER_0_31_2
*660 FILLER_0_31_209
*661 FILLER_0_31_212
*662 FILLER_0_31_276
*663 FILLER_0_31_282
*664 FILLER_0_31_346
*665 FILLER_0_31_348
*666 FILLER_0_31_66
*667 FILLER_0_31_72
*668 FILLER_0_32_101
*669 FILLER_0_32_107
*670 FILLER_0_32_171
*671 FILLER_0_32_177
*672 FILLER_0_32_2
*673 FILLER_0_32_241
*674 FILLER_0_32_247
*675 FILLER_0_32_311
*676 FILLER_0_32_317
*677 FILLER_0_32_34
*678 FILLER_0_32_37
*679 FILLER_0_33_136
*680 FILLER_0_33_142
*681 FILLER_0_33_2
*682 FILLER_0_33_206
*683 FILLER_0_33_212
*684 FILLER_0_33_276
*685 FILLER_0_33_282
*686 FILLER_0_33_346
*687 FILLER_0_33_348
*688 FILLER_0_33_66
*689 FILLER_0_33_72
*690 FILLER_0_34_101
*691 FILLER_0_34_107
*692 FILLER_0_34_171
*693 FILLER_0_34_177
*694 FILLER_0_34_2
*695 FILLER_0_34_241
*696 FILLER_0_34_247
*697 FILLER_0_34_311
*698 FILLER_0_34_317
*699 FILLER_0_34_34
*700 FILLER_0_34_37
*701 FILLER_0_35_136
*702 FILLER_0_35_142
*703 FILLER_0_35_2
*704 FILLER_0_35_206
*705 FILLER_0_35_212
*706 FILLER_0_35_276
*707 FILLER_0_35_282
*708 FILLER_0_35_346
*709 FILLER_0_35_348
*710 FILLER_0_35_66
*711 FILLER_0_35_72
*712 FILLER_0_36_101
*713 FILLER_0_36_107
*714 FILLER_0_36_171
*715 FILLER_0_36_177
*716 FILLER_0_36_2
*717 FILLER_0_36_241
*718 FILLER_0_36_247
*719 FILLER_0_36_311
*720 FILLER_0_36_317
*721 FILLER_0_36_34
*722 FILLER_0_36_37
*723 FILLER_0_37_136
*724 FILLER_0_37_142
*725 FILLER_0_37_2
*726 FILLER_0_37_206
*727 FILLER_0_37_212
*728 FILLER_0_37_276
*729 FILLER_0_37_282
*730 FILLER_0_37_346
*731 FILLER_0_37_348
*732 FILLER_0_37_66
*733 FILLER_0_37_72
*734 FILLER_0_38_101
*735 FILLER_0_38_107
*736 FILLER_0_38_171
*737 FILLER_0_38_177
*738 FILLER_0_38_2
*739 FILLER_0_38_241
*740 FILLER_0_38_247
*741 FILLER_0_38_311
*742 FILLER_0_38_317
*743 FILLER_0_38_34
*744 FILLER_0_38_37
*745 FILLER_0_39_136
*746 FILLER_0_39_142
*747 FILLER_0_39_2
*748 FILLER_0_39_206
*749 FILLER_0_39_212
*750 FILLER_0_39_276
*751 FILLER_0_39_282
*752 FILLER_0_39_346
*753 FILLER_0_39_348
*754 FILLER_0_39_66
*755 FILLER_0_39_72
*756 FILLER_0_3_136
*757 FILLER_0_3_142
*758 FILLER_0_3_2
*759 FILLER_0_3_206
*760 FILLER_0_3_212
*761 FILLER_0_3_276
*762 FILLER_0_3_282
*763 FILLER_0_3_346
*764 FILLER_0_3_348
*765 FILLER_0_3_66
*766 FILLER_0_3_72
*767 FILLER_0_40_101
*768 FILLER_0_40_107
*769 FILLER_0_40_171
*770 FILLER_0_40_177
*771 FILLER_0_40_2
*772 FILLER_0_40_241
*773 FILLER_0_40_247
*774 FILLER_0_40_311
*775 FILLER_0_40_317
*776 FILLER_0_40_34
*777 FILLER_0_40_37
*778 FILLER_0_41_136
*779 FILLER_0_41_142
*780 FILLER_0_41_2
*781 FILLER_0_41_206
*782 FILLER_0_41_212
*783 FILLER_0_41_276
*784 FILLER_0_41_282
*785 FILLER_0_41_346
*786 FILLER_0_41_348
*787 FILLER_0_41_66
*788 FILLER_0_41_72
*789 FILLER_0_42_101
*790 FILLER_0_42_107
*791 FILLER_0_42_171
*792 FILLER_0_42_177
*793 FILLER_0_42_2
*794 FILLER_0_42_241
*795 FILLER_0_42_247
*796 FILLER_0_42_311
*797 FILLER_0_42_317
*798 FILLER_0_42_34
*799 FILLER_0_42_37
*800 FILLER_0_43_136
*801 FILLER_0_43_142
*802 FILLER_0_43_195
*803 FILLER_0_43_2
*804 FILLER_0_43_203
*805 FILLER_0_43_207
*806 FILLER_0_43_209
*807 FILLER_0_43_212
*808 FILLER_0_43_216
*809 FILLER_0_43_221
*810 FILLER_0_43_253
*811 FILLER_0_43_269
*812 FILLER_0_43_277
*813 FILLER_0_43_279
*814 FILLER_0_43_282
*815 FILLER_0_43_346
*816 FILLER_0_43_348
*817 FILLER_0_43_66
*818 FILLER_0_43_72
*819 FILLER_0_44_104
*820 FILLER_0_44_138
*821 FILLER_0_44_142
*822 FILLER_0_44_172
*823 FILLER_0_44_176
*824 FILLER_0_44_2
*825 FILLER_0_44_206
*826 FILLER_0_44_210
*827 FILLER_0_44_237
*828 FILLER_0_44_240
*829 FILLER_0_44_274
*830 FILLER_0_44_308
*831 FILLER_0_44_342
*832 FILLER_0_44_346
*833 FILLER_0_44_348
*834 FILLER_0_44_36
*835 FILLER_0_44_70
*836 FILLER_0_4_101
*837 FILLER_0_4_107
*838 FILLER_0_4_171
*839 FILLER_0_4_177
*840 FILLER_0_4_2
*841 FILLER_0_4_241
*842 FILLER_0_4_247
*843 FILLER_0_4_311
*844 FILLER_0_4_317
*845 FILLER_0_4_34
*846 FILLER_0_4_37
*847 FILLER_0_5_136
*848 FILLER_0_5_142
*849 FILLER_0_5_2
*850 FILLER_0_5_206
*851 FILLER_0_5_212
*852 FILLER_0_5_276
*853 FILLER_0_5_282
*854 FILLER_0_5_346
*855 FILLER_0_5_348
*856 FILLER_0_5_66
*857 FILLER_0_5_72
*858 FILLER_0_6_101
*859 FILLER_0_6_107
*860 FILLER_0_6_171
*861 FILLER_0_6_177
*862 FILLER_0_6_2
*863 FILLER_0_6_241
*864 FILLER_0_6_247
*865 FILLER_0_6_311
*866 FILLER_0_6_317
*867 FILLER_0_6_34
*868 FILLER_0_6_37
*869 FILLER_0_7_136
*870 FILLER_0_7_142
*871 FILLER_0_7_2
*872 FILLER_0_7_206
*873 FILLER_0_7_212
*874 FILLER_0_7_276
*875 FILLER_0_7_282
*876 FILLER_0_7_346
*877 FILLER_0_7_348
*878 FILLER_0_7_66
*879 FILLER_0_7_72
*880 FILLER_0_8_101
*881 FILLER_0_8_107
*882 FILLER_0_8_171
*883 FILLER_0_8_177
*884 FILLER_0_8_2
*885 FILLER_0_8_241
*886 FILLER_0_8_247
*887 FILLER_0_8_311
*888 FILLER_0_8_317
*889 FILLER_0_8_34
*890 FILLER_0_8_37
*891 FILLER_0_9_136
*892 FILLER_0_9_142
*893 FILLER_0_9_2
*894 FILLER_0_9_206
*895 FILLER_0_9_212
*896 FILLER_0_9_276
*897 FILLER_0_9_282
*898 FILLER_0_9_346
*899 FILLER_0_9_348
*900 FILLER_0_9_66
*901 FILLER_0_9_72
*902 PHY_EDGE_ROW_0_Left_45
*903 PHY_EDGE_ROW_0_Right_0
*904 PHY_EDGE_ROW_10_Left_55
*905 PHY_EDGE_ROW_10_Right_10
*906 PHY_EDGE_ROW_11_Left_56
*907 PHY_EDGE_ROW_11_Right_11
*908 PHY_EDGE_ROW_12_Left_57
*909 PHY_EDGE_ROW_12_Right_12
*910 PHY_EDGE_ROW_13_Left_58
*911 PHY_EDGE_ROW_13_Right_13
*912 PHY_EDGE_ROW_14_Left_59
*913 PHY_EDGE_ROW_14_Right_14
*914 PHY_EDGE_ROW_15_Left_60
*915 PHY_EDGE_ROW_15_Right_15
*916 PHY_EDGE_ROW_16_Left_61
*917 PHY_EDGE_ROW_16_Right_16
*918 PHY_EDGE_ROW_17_Left_62
*919 PHY_EDGE_ROW_17_Right_17
*920 PHY_EDGE_ROW_18_Left_63
*921 PHY_EDGE_ROW_18_Right_18
*922 PHY_EDGE_ROW_19_Left_64
*923 PHY_EDGE_ROW_19_Right_19
*924 PHY_EDGE_ROW_1_Left_46
*925 PHY_EDGE_ROW_1_Right_1
*926 PHY_EDGE_ROW_20_Left_65
*927 PHY_EDGE_ROW_20_Right_20
*928 PHY_EDGE_ROW_21_Left_66
*929 PHY_EDGE_ROW_21_Right_21
*930 PHY_EDGE_ROW_22_Left_67
*931 PHY_EDGE_ROW_22_Right_22
*932 PHY_EDGE_ROW_23_Left_68
*933 PHY_EDGE_ROW_23_Right_23
*934 PHY_EDGE_ROW_24_Left_69
*935 PHY_EDGE_ROW_24_Right_24
*936 PHY_EDGE_ROW_25_Left_70
*937 PHY_EDGE_ROW_25_Right_25
*938 PHY_EDGE_ROW_26_Left_71
*939 PHY_EDGE_ROW_26_Right_26
*940 PHY_EDGE_ROW_27_Left_72
*941 PHY_EDGE_ROW_27_Right_27
*942 PHY_EDGE_ROW_28_Left_73
*943 PHY_EDGE_ROW_28_Right_28
*944 PHY_EDGE_ROW_29_Left_74
*945 PHY_EDGE_ROW_29_Right_29
*946 PHY_EDGE_ROW_2_Left_47
*947 PHY_EDGE_ROW_2_Right_2
*948 PHY_EDGE_ROW_30_Left_75
*949 PHY_EDGE_ROW_30_Right_30
*950 PHY_EDGE_ROW_31_Left_76
*951 PHY_EDGE_ROW_31_Right_31
*952 PHY_EDGE_ROW_32_Left_77
*953 PHY_EDGE_ROW_32_Right_32
*954 PHY_EDGE_ROW_33_Left_78
*955 PHY_EDGE_ROW_33_Right_33
*956 PHY_EDGE_ROW_34_Left_79
*957 PHY_EDGE_ROW_34_Right_34
*958 PHY_EDGE_ROW_35_Left_80
*959 PHY_EDGE_ROW_35_Right_35
*960 PHY_EDGE_ROW_36_Left_81
*961 PHY_EDGE_ROW_36_Right_36
*962 PHY_EDGE_ROW_37_Left_82
*963 PHY_EDGE_ROW_37_Right_37
*964 PHY_EDGE_ROW_38_Left_83
*965 PHY_EDGE_ROW_38_Right_38
*966 PHY_EDGE_ROW_39_Left_84
*967 PHY_EDGE_ROW_39_Right_39
*968 PHY_EDGE_ROW_3_Left_48
*969 PHY_EDGE_ROW_3_Right_3
*970 PHY_EDGE_ROW_40_Left_85
*971 PHY_EDGE_ROW_40_Right_40
*972 PHY_EDGE_ROW_41_Left_86
*973 PHY_EDGE_ROW_41_Right_41
*974 PHY_EDGE_ROW_42_Left_87
*975 PHY_EDGE_ROW_42_Right_42
*976 PHY_EDGE_ROW_43_Left_88
*977 PHY_EDGE_ROW_43_Right_43
*978 PHY_EDGE_ROW_44_Left_89
*979 PHY_EDGE_ROW_44_Right_44
*980 PHY_EDGE_ROW_4_Left_49
*981 PHY_EDGE_ROW_4_Right_4
*982 PHY_EDGE_ROW_5_Left_50
*983 PHY_EDGE_ROW_5_Right_5
*984 PHY_EDGE_ROW_6_Left_51
*985 PHY_EDGE_ROW_6_Right_6
*986 PHY_EDGE_ROW_7_Left_52
*987 PHY_EDGE_ROW_7_Right_7
*988 PHY_EDGE_ROW_8_Left_53
*989 PHY_EDGE_ROW_8_Right_8
*990 PHY_EDGE_ROW_9_Left_54
*991 PHY_EDGE_ROW_9_Right_9
*992 TAP_TAPCELL_ROW_0_90
*993 TAP_TAPCELL_ROW_0_91
*994 TAP_TAPCELL_ROW_0_92
*995 TAP_TAPCELL_ROW_0_93
*996 TAP_TAPCELL_ROW_0_94
*997 TAP_TAPCELL_ROW_0_95
*998 TAP_TAPCELL_ROW_0_96
*999 TAP_TAPCELL_ROW_0_97
*1000 TAP_TAPCELL_ROW_0_98
*1001 TAP_TAPCELL_ROW_0_99
*1002 TAP_TAPCELL_ROW_10_140
*1003 TAP_TAPCELL_ROW_10_141
*1004 TAP_TAPCELL_ROW_10_142
*1005 TAP_TAPCELL_ROW_10_143
*1006 TAP_TAPCELL_ROW_10_144
*1007 TAP_TAPCELL_ROW_11_145
*1008 TAP_TAPCELL_ROW_11_146
*1009 TAP_TAPCELL_ROW_11_147
*1010 TAP_TAPCELL_ROW_11_148
*1011 TAP_TAPCELL_ROW_12_149
*1012 TAP_TAPCELL_ROW_12_150
*1013 TAP_TAPCELL_ROW_12_151
*1014 TAP_TAPCELL_ROW_12_152
*1015 TAP_TAPCELL_ROW_12_153
*1016 TAP_TAPCELL_ROW_13_154
*1017 TAP_TAPCELL_ROW_13_155
*1018 TAP_TAPCELL_ROW_13_156
*1019 TAP_TAPCELL_ROW_13_157
*1020 TAP_TAPCELL_ROW_14_158
*1021 TAP_TAPCELL_ROW_14_159
*1022 TAP_TAPCELL_ROW_14_160
*1023 TAP_TAPCELL_ROW_14_161
*1024 TAP_TAPCELL_ROW_14_162
*1025 TAP_TAPCELL_ROW_15_163
*1026 TAP_TAPCELL_ROW_15_164
*1027 TAP_TAPCELL_ROW_15_165
*1028 TAP_TAPCELL_ROW_15_166
*1029 TAP_TAPCELL_ROW_16_167
*1030 TAP_TAPCELL_ROW_16_168
*1031 TAP_TAPCELL_ROW_16_169
*1032 TAP_TAPCELL_ROW_16_170
*1033 TAP_TAPCELL_ROW_16_171
*1034 TAP_TAPCELL_ROW_17_172
*1035 TAP_TAPCELL_ROW_17_173
*1036 TAP_TAPCELL_ROW_17_174
*1037 TAP_TAPCELL_ROW_17_175
*1038 TAP_TAPCELL_ROW_18_176
*1039 TAP_TAPCELL_ROW_18_177
*1040 TAP_TAPCELL_ROW_18_178
*1041 TAP_TAPCELL_ROW_18_179
*1042 TAP_TAPCELL_ROW_18_180
*1043 TAP_TAPCELL_ROW_19_181
*1044 TAP_TAPCELL_ROW_19_182
*1045 TAP_TAPCELL_ROW_19_183
*1046 TAP_TAPCELL_ROW_19_184
*1047 TAP_TAPCELL_ROW_1_100
*1048 TAP_TAPCELL_ROW_1_101
*1049 TAP_TAPCELL_ROW_1_102
*1050 TAP_TAPCELL_ROW_1_103
*1051 TAP_TAPCELL_ROW_20_185
*1052 TAP_TAPCELL_ROW_20_186
*1053 TAP_TAPCELL_ROW_20_187
*1054 TAP_TAPCELL_ROW_20_188
*1055 TAP_TAPCELL_ROW_20_189
*1056 TAP_TAPCELL_ROW_21_190
*1057 TAP_TAPCELL_ROW_21_191
*1058 TAP_TAPCELL_ROW_21_192
*1059 TAP_TAPCELL_ROW_21_193
*1060 TAP_TAPCELL_ROW_22_194
*1061 TAP_TAPCELL_ROW_22_195
*1062 TAP_TAPCELL_ROW_22_196
*1063 TAP_TAPCELL_ROW_22_197
*1064 TAP_TAPCELL_ROW_22_198
*1065 TAP_TAPCELL_ROW_23_199
*1066 TAP_TAPCELL_ROW_23_200
*1067 TAP_TAPCELL_ROW_23_201
*1068 TAP_TAPCELL_ROW_23_202
*1069 TAP_TAPCELL_ROW_24_203
*1070 TAP_TAPCELL_ROW_24_204
*1071 TAP_TAPCELL_ROW_24_205
*1072 TAP_TAPCELL_ROW_24_206
*1073 TAP_TAPCELL_ROW_24_207
*1074 TAP_TAPCELL_ROW_25_208
*1075 TAP_TAPCELL_ROW_25_209
*1076 TAP_TAPCELL_ROW_25_210
*1077 TAP_TAPCELL_ROW_25_211
*1078 TAP_TAPCELL_ROW_26_212
*1079 TAP_TAPCELL_ROW_26_213
*1080 TAP_TAPCELL_ROW_26_214
*1081 TAP_TAPCELL_ROW_26_215
*1082 TAP_TAPCELL_ROW_26_216
*1083 TAP_TAPCELL_ROW_27_217
*1084 TAP_TAPCELL_ROW_27_218
*1085 TAP_TAPCELL_ROW_27_219
*1086 TAP_TAPCELL_ROW_27_220
*1087 TAP_TAPCELL_ROW_28_221
*1088 TAP_TAPCELL_ROW_28_222
*1089 TAP_TAPCELL_ROW_28_223
*1090 TAP_TAPCELL_ROW_28_224
*1091 TAP_TAPCELL_ROW_28_225
*1092 TAP_TAPCELL_ROW_29_226
*1093 TAP_TAPCELL_ROW_29_227
*1094 TAP_TAPCELL_ROW_29_228
*1095 TAP_TAPCELL_ROW_29_229
*1096 TAP_TAPCELL_ROW_2_104
*1097 TAP_TAPCELL_ROW_2_105
*1098 TAP_TAPCELL_ROW_2_106
*1099 TAP_TAPCELL_ROW_2_107
*1100 TAP_TAPCELL_ROW_2_108
*1101 TAP_TAPCELL_ROW_30_230
*1102 TAP_TAPCELL_ROW_30_231
*1103 TAP_TAPCELL_ROW_30_232
*1104 TAP_TAPCELL_ROW_30_233
*1105 TAP_TAPCELL_ROW_30_234
*1106 TAP_TAPCELL_ROW_31_235
*1107 TAP_TAPCELL_ROW_31_236
*1108 TAP_TAPCELL_ROW_31_237
*1109 TAP_TAPCELL_ROW_31_238
*1110 TAP_TAPCELL_ROW_32_239
*1111 TAP_TAPCELL_ROW_32_240
*1112 TAP_TAPCELL_ROW_32_241
*1113 TAP_TAPCELL_ROW_32_242
*1114 TAP_TAPCELL_ROW_32_243
*1115 TAP_TAPCELL_ROW_33_244
*1116 TAP_TAPCELL_ROW_33_245
*1117 TAP_TAPCELL_ROW_33_246
*1118 TAP_TAPCELL_ROW_33_247
*1119 TAP_TAPCELL_ROW_34_248
*1120 TAP_TAPCELL_ROW_34_249
*1121 TAP_TAPCELL_ROW_34_250
*1122 TAP_TAPCELL_ROW_34_251
*1123 TAP_TAPCELL_ROW_34_252
*1124 TAP_TAPCELL_ROW_35_253
*1125 TAP_TAPCELL_ROW_35_254
*1126 TAP_TAPCELL_ROW_35_255
*1127 TAP_TAPCELL_ROW_35_256
*1128 TAP_TAPCELL_ROW_36_257
*1129 TAP_TAPCELL_ROW_36_258
*1130 TAP_TAPCELL_ROW_36_259
*1131 TAP_TAPCELL_ROW_36_260
*1132 TAP_TAPCELL_ROW_36_261
*1133 TAP_TAPCELL_ROW_37_262
*1134 TAP_TAPCELL_ROW_37_263
*1135 TAP_TAPCELL_ROW_37_264
*1136 TAP_TAPCELL_ROW_37_265
*1137 TAP_TAPCELL_ROW_38_266
*1138 TAP_TAPCELL_ROW_38_267
*1139 TAP_TAPCELL_ROW_38_268
*1140 TAP_TAPCELL_ROW_38_269
*1141 TAP_TAPCELL_ROW_38_270
*1142 TAP_TAPCELL_ROW_39_271
*1143 TAP_TAPCELL_ROW_39_272
*1144 TAP_TAPCELL_ROW_39_273
*1145 TAP_TAPCELL_ROW_39_274
*1146 TAP_TAPCELL_ROW_3_109
*1147 TAP_TAPCELL_ROW_3_110
*1148 TAP_TAPCELL_ROW_3_111
*1149 TAP_TAPCELL_ROW_3_112
*1150 TAP_TAPCELL_ROW_40_275
*1151 TAP_TAPCELL_ROW_40_276
*1152 TAP_TAPCELL_ROW_40_277
*1153 TAP_TAPCELL_ROW_40_278
*1154 TAP_TAPCELL_ROW_40_279
*1155 TAP_TAPCELL_ROW_41_280
*1156 TAP_TAPCELL_ROW_41_281
*1157 TAP_TAPCELL_ROW_41_282
*1158 TAP_TAPCELL_ROW_41_283
*1159 TAP_TAPCELL_ROW_42_284
*1160 TAP_TAPCELL_ROW_42_285
*1161 TAP_TAPCELL_ROW_42_286
*1162 TAP_TAPCELL_ROW_42_287
*1163 TAP_TAPCELL_ROW_42_288
*1164 TAP_TAPCELL_ROW_43_289
*1165 TAP_TAPCELL_ROW_43_290
*1166 TAP_TAPCELL_ROW_43_291
*1167 TAP_TAPCELL_ROW_43_292
*1168 TAP_TAPCELL_ROW_44_293
*1169 TAP_TAPCELL_ROW_44_294
*1170 TAP_TAPCELL_ROW_44_295
*1171 TAP_TAPCELL_ROW_44_296
*1172 TAP_TAPCELL_ROW_44_297
*1173 TAP_TAPCELL_ROW_44_298
*1174 TAP_TAPCELL_ROW_44_299
*1175 TAP_TAPCELL_ROW_44_300
*1176 TAP_TAPCELL_ROW_44_301
*1177 TAP_TAPCELL_ROW_44_302
*1178 TAP_TAPCELL_ROW_4_113
*1179 TAP_TAPCELL_ROW_4_114
*1180 TAP_TAPCELL_ROW_4_115
*1181 TAP_TAPCELL_ROW_4_116
*1182 TAP_TAPCELL_ROW_4_117
*1183 TAP_TAPCELL_ROW_5_118
*1184 TAP_TAPCELL_ROW_5_119
*1185 TAP_TAPCELL_ROW_5_120
*1186 TAP_TAPCELL_ROW_5_121
*1187 TAP_TAPCELL_ROW_6_122
*1188 TAP_TAPCELL_ROW_6_123
*1189 TAP_TAPCELL_ROW_6_124
*1190 TAP_TAPCELL_ROW_6_125
*1191 TAP_TAPCELL_ROW_6_126
*1192 TAP_TAPCELL_ROW_7_127
*1193 TAP_TAPCELL_ROW_7_128
*1194 TAP_TAPCELL_ROW_7_129
*1195 TAP_TAPCELL_ROW_7_130
*1196 TAP_TAPCELL_ROW_8_131
*1197 TAP_TAPCELL_ROW_8_132
*1198 TAP_TAPCELL_ROW_8_133
*1199 TAP_TAPCELL_ROW_8_134
*1200 TAP_TAPCELL_ROW_8_135
*1201 TAP_TAPCELL_ROW_9_136
*1202 TAP_TAPCELL_ROW_9_137
*1203 TAP_TAPCELL_ROW_9_138
*1204 TAP_TAPCELL_ROW_9_139
*1205 _105_
*1206 _106_
*1207 _107_
*1208 _108_
*1209 _109_
*1210 _110_
*1211 _111_
*1212 _112_
*1213 _113_
*1214 _114_
*1215 _115_
*1216 _116_
*1217 _117_
*1218 _118_
*1219 _119_
*1220 _120_
*1221 _121_
*1222 _122_
*1223 _123_
*1224 _124_
*1225 _125_
*1226 _126_
*1227 _127_
*1228 _128_
*1229 _129_
*1230 _130_
*1231 _131_
*1232 _132_
*1233 _133_
*1234 _134_
*1235 _135_
*1236 _136_
*1237 _137_
*1238 _138_
*1239 _139_
*1240 _140_
*1241 _141_
*1242 _142_
*1243 _143_
*1244 _144_
*1245 _145_
*1246 _146_
*1247 _147_
*1248 _148_
*1249 _149_
*1250 _150_
*1251 _151_
*1252 _152_
*1253 _153_
*1254 _154_
*1255 _155_
*1256 _156_
*1257 _157_
*1258 _158_
*1259 _159_
*1260 _160_
*1261 _161_
*1262 _162_
*1263 _163_
*1264 _164_
*1265 _165_
*1266 _166_
*1267 _167_
*1268 _168_
*1269 _169_
*1270 _170_
*1271 _171_
*1272 _172_
*1273 _173_
*1274 _174_
*1275 _175_
*1276 _176_
*1277 _177_
*1278 _178_
*1279 _179_
*1280 _180_
*1281 _181_
*1282 _182_
*1283 _183_
*1284 _184_
*1285 _185_
*1286 _186_
*1287 _187_
*1288 _188_
*1289 _189_
*1290 _190_
*1291 _191_
*1292 _192_
*1293 _193_
*1294 _194_
*1295 _195_
*1296 _196_
*1297 _197_
*1298 _198_
*1299 _199_
*1300 _200_
*1301 _201_
*1302 _202_
*1303 _203_
*1304 _204_
*1305 _205_
*1306 _206_
*1307 _207_
*1308 _208_
*1309 _209_
*1310 _210_
*1311 _211_
*1312 _212_
*1313 _213_
*1314 _214_
*1315 _215_
*1316 _216_
*1317 _217_
*1318 _218_
*1319 _219_
*1320 _220_
*1321 _221_
*1322 _222_
*1323 _223_
*1324 _224_
*1325 _225_
*1326 _226_
*1327 _227_
*1328 _228_
*1329 _229_
*1330 _230_
*1331 _231_
*1332 _232_
*1333 _233_
*1334 _234_
*1335 _238_
*1336 _239_
*1337 clkbuf_0_clk
*1338 clkbuf_1_0__f_clk
*1339 clkbuf_1_1__f_clk
*1340 ita60_24
*1341 ita60_25
*1342 ita60_26
*1343 output1
*1344 output10
*1345 output11
*1346 output12
*1347 output13
*1348 output14
*1349 output15
*1350 output16
*1351 output17
*1352 output18
*1353 output19
*1354 output2
*1355 output20
*1356 output21
*1357 output22
*1358 output23
*1359 output3
*1360 output4
*1361 output5
*1362 output6
*1363 output7
*1364 output8
*1365 output9

*PORTS
clk I
segm[0] O
segm[10] O
segm[11] O
segm[12] O
segm[13] O
segm[1] O
segm[2] O
segm[3] O
segm[4] O
segm[5] O
segm[6] O
segm[7] O
segm[8] O
segm[9] O
sel[0] O
sel[10] O
sel[11] O
sel[1] O
sel[2] O
sel[3] O
sel[4] O
sel[5] O
sel[6] O
sel[7] O
sel[8] O
sel[9] O

*D_NET *1 0.0150582
*CONN
*P clk I
*I *1337:I I *D gf180mcu_fd_sc_mcu7t5v0__clkbuf_16
*I *194:I I *D gf180mcu_fd_sc_mcu7t5v0__antenna
*CAP
1 clk 0.00264047
2 *1337:I 0.000160266
3 *194:I 0
4 *1:15 0.00315279
5 *1:11 0.005633
6 *1337:I *96:23 2.93527e-05
7 *1337:I *97:8 0.000280581
8 *1337:I *97:21 0.000455182
9 *1337:I *107:27 2.1053e-05
10 *1:11 *1353:I 0.000122244
11 *1:15 *1234:A1 0
12 *1:15 *97:8 0.000428121
13 *1:15 *107:27 0.000208746
14 *1:15 *107:37 0.000330049
15 *1:15 *139:12 0.00159637
*RES
1 clk *1:11 28.708 
2 *1:11 *1:15 26.832 
3 *1:15 *194:I 9 
4 *1:15 *1337:I 10.976 
*END

*D_NET *2 0.000937194
*CONN
*P segm[0] O
*I *1340:ZN O *D gf180mcu_fd_sc_mcu7t5v0__tiel
*CAP
1 segm[0] 0.000441618
2 *1340:ZN 0.000441618
3 segm[0] sel[10] 5.39577e-05
*RES
1 *1340:ZN segm[0] 12.276 
*END

*D_NET *3 0.000508646
*CONN
*P segm[10] O
*I *1343:Z O *D gf180mcu_fd_sc_mcu7t5v0__buf_8
*CAP
1 segm[10] 0.000254323
2 *1343:Z 0.000254323
*RES
1 *1343:Z segm[10] 11.34 
*END

*D_NET *4 0.00205904
*CONN
*P segm[11] O
*I *1354:Z O *D gf180mcu_fd_sc_mcu7t5v0__buf_8
*CAP
1 segm[11] 0.00090838
2 *1354:Z 0.00090838
3 segm[11] segm[3] 0.000129267
4 segm[11] *1354:I 0.000113016
*RES
1 *1354:Z segm[11] 21.144 
*END

*D_NET *5 0.00100154
*CONN
*P segm[12] O
*I *1359:Z O *D gf180mcu_fd_sc_mcu7t5v0__buf_8
*CAP
1 segm[12] 0.000469566
2 *1359:Z 0.000469566
3 segm[12] sel[5] 6.24106e-05
*RES
1 *1359:Z segm[12] 12.692 
*END

*D_NET *6 0.000530519
*CONN
*P segm[13] O
*I *1360:Z O *D gf180mcu_fd_sc_mcu7t5v0__buf_8
*CAP
1 segm[13] 0.000230762
2 *1360:Z 0.000230762
3 segm[13] segm[4] 6.8994e-05
*RES
1 *1360:Z segm[13] 11.34 
*END

*D_NET *7 0.00063989
*CONN