*SPEF "ieee 1481-1999"
*DESIGN "ita63"
*DATE "11:11:11 Fri 11 11, 1111"
*VENDOR "OpenRCX"
*PROGRAM "Parallel Extraction"
*VERSION "1.0"
*DESIGN_FLOW "NAME_SCOPE LOCAL" "PIN_CAP NONE"
*DIVIDER /
*DELIMITER :
*BUS_DELIMITER []
*T_UNIT 1 NS
*C_UNIT 1 PF
*R_UNIT 1 OHM
*L_UNIT 1 HENRY

*NAME_MAP
*1 clk
*2 net26
*3 segm[10]
*4 segm[11]
*5 segm[12]
*6 segm[13]
*7 segm[1]
*8 segm[2]
*9 segm[3]
*10 segm[4]
*11 segm[5]
*12 segm[6]
*13 segm[7]
*14 segm[8]
*15 segm[9]
*16 sel[0]
*17 sel[10]
*18 sel[11]
*19 sel[1]
*20 sel[2]
*21 sel[3]
*22 sel[4]
*23 sel[5]
*24 sel[6]
*25 sel[7]
*26 sel[8]
*27 sel[9]
*30 _000_
*31 _001_
*32 _002_
*33 _003_
*34 _004_
*35 _005_
*36 _006_
*37 _007_
*38 _008_
*39 _009_
*40 _010_
*41 _011_
*42 _012_
*43 _013_
*44 _014_
*45 _015_
*46 _016_
*47 _017_
*48 _018_
*49 _019_
*50 _020_
*51 _021_
*52 _022_
*53 _023_
*54 _024_
*55 _025_
*56 _026_
*57 _027_
*58 _028_
*59 _029_
*60 _030_
*61 _031_
*62 _032_
*63 _033_
*64 _034_
*65 _035_
*66 _036_
*67 _037_
*68 _038_
*69 _039_
*70 _040_
*71 _041_
*72 _042_
*73 _043_
*74 _044_
*75 _045_
*76 _046_
*77 _047_
*78 _048_
*79 _049_
*80 _050_
*81 _051_
*82 _052_
*83 _053_
*84 _054_
*85 _055_
*86 _056_
*87 _057_
*88 _058_
*89 _059_
*90 _060_
*91 _061_
*92 _062_
*93 _063_
*94 _064_
*95 _065_
*96 _066_
*97 _067_
*98 _068_
*99 _069_
*100 _070_
*101 _071_
*102 _072_
*103 _073_
*104 _074_
*105 _075_
*106 _076_
*107 _077_
*108 _078_
*109 _079_
*110 _080_
*111 _081_
*112 _082_
*113 _083_
*114 _084_
*115 _085_
*116 _086_
*117 _087_
*118 _088_
*119 _089_
*120 _090_
*121 _091_
*122 _092_
*123 _093_
*124 _094_
*125 _095_
*126 _096_
*127 _097_
*128 _098_
*129 _099_
*130 _100_
*131 _101_
*132 _102_
*133 _103_
*134 _104_
*135 clknet_0_clk
*136 clknet_1_0__leaf_clk
*137 clknet_1_1__leaf_clk
*138 dut63\.count\[0\]
*139 dut63\.count\[1\]
*140 dut63\.count\[2\]
*141 dut63\.count\[3\]
*142 net1
*143 net10
*144 net11
*145 net12
*146 net13
*147 net14
*148 net15
*149 net16
*150 net17
*151 net18
*152 net19
*153 net2
*154 net20
*155 net21
*156 net22
*157 net23
*158 net24
*159 net25
*160 net3
*161 net4
*162 net5
*163 net6
*164 net7
*165 net8
*166 net9
*167 ANTENNA__156__A2
*168 ANTENNA__169__A2
*169 ANTENNA__186__A2
*170 ANTENNA__199__A2
*171 ANTENNA__210__CLK
*172 ANTENNA__211__CLK
*173 ANTENNA__212__CLK
*174 ANTENNA__213__CLK
*175 ANTENNA__214__CLK
*176 ANTENNA__215__CLK
*177 ANTENNA__216__CLK
*178 ANTENNA__217__CLK
*179 ANTENNA__218__CLK
*180 ANTENNA__219__CLK
*181 ANTENNA__220__CLK
*182 ANTENNA__221__CLK
*183 ANTENNA__222__CLK
*184 ANTENNA__223__CLK
*185 ANTENNA__224__CLK
*186 ANTENNA__225__CLK
*187 ANTENNA__226__CLK
*188 ANTENNA__227__CLK
*189 ANTENNA__228__CLK
*190 ANTENNA__229__CLK
*191 ANTENNA__230__CLK
*192 ANTENNA__231__CLK
*193 ANTENNA__232__CLK
*194 ANTENNA__233__CLK
*195 ANTENNA__234__CLK
*196 ANTENNA__235__CLK
*197 ANTENNA_clkbuf_0_clk_I
*198 FILLER_0_0_104
*199 FILLER_0_0_138
*200 FILLER_0_0_142
*201 FILLER_0_0_172
*202 FILLER_0_0_176
*203 FILLER_0_0_2
*204 FILLER_0_0_232
*205 FILLER_0_0_236
*206 FILLER_0_0_240
*207 FILLER_0_0_274
*208 FILLER_0_0_308
*209 FILLER_0_0_342
*210 FILLER_0_0_346
*211 FILLER_0_0_348
*212 FILLER_0_0_36
*213 FILLER_0_0_70
*214 FILLER_0_10_101
*215 FILLER_0_10_107
*216 FILLER_0_10_171
*217 FILLER_0_10_177
*218 FILLER_0_10_2
*219 FILLER_0_10_241
*220 FILLER_0_10_247
*221 FILLER_0_10_311
*222 FILLER_0_10_317
*223 FILLER_0_10_34
*224 FILLER_0_10_37
*225 FILLER_0_11_136
*226 FILLER_0_11_142
*227 FILLER_0_11_2
*228 FILLER_0_11_206
*229 FILLER_0_11_212
*230 FILLER_0_11_276
*231 FILLER_0_11_282
*232 FILLER_0_11_346
*233 FILLER_0_11_348
*234 FILLER_0_11_66
*235 FILLER_0_11_72
*236 FILLER_0_12_101
*237 FILLER_0_12_107
*238 FILLER_0_12_123
*239 FILLER_0_12_131
*240 FILLER_0_12_135
*241 FILLER_0_12_166
*242 FILLER_0_12_170
*243 FILLER_0_12_174
*244 FILLER_0_12_2
*245 FILLER_0_12_206
*246 FILLER_0_12_210
*247 FILLER_0_12_242
*248 FILLER_0_12_244
*249 FILLER_0_12_247
*250 FILLER_0_12_311
*251 FILLER_0_12_317
*252 FILLER_0_12_34
*253 FILLER_0_12_37
*254 FILLER_0_13_104
*255 FILLER_0_13_108
*256 FILLER_0_13_110
*257 FILLER_0_13_142
*258 FILLER_0_13_152
*259 FILLER_0_13_2
*260 FILLER_0_13_202
*261 FILLER_0_13_206
*262 FILLER_0_13_212
*263 FILLER_0_13_242
*264 FILLER_0_13_274
*265 FILLER_0_13_278
*266 FILLER_0_13_282
*267 FILLER_0_13_346
*268 FILLER_0_13_348
*269 FILLER_0_13_66
*270 FILLER_0_13_72
*271 FILLER_0_14_101
*272 FILLER_0_14_107
*273 FILLER_0_14_123
*274 FILLER_0_14_131
*275 FILLER_0_14_137
*276 FILLER_0_14_139
*277 FILLER_0_14_157
*278 FILLER_0_14_173
*279 FILLER_0_14_177
*280 FILLER_0_14_181
*281 FILLER_0_14_195
*282 FILLER_0_14_199
*283 FILLER_0_14_2
*284 FILLER_0_14_215
*285 FILLER_0_14_239
*286 FILLER_0_14_243
*287 FILLER_0_14_247
*288 FILLER_0_14_311
*289 FILLER_0_14_317
*290 FILLER_0_14_321
*291 FILLER_0_14_34
*292 FILLER_0_14_37
*293 FILLER_0_15_136
*294 FILLER_0_15_142
*295 FILLER_0_15_146
*296 FILLER_0_15_148
*297 FILLER_0_15_151
*298 FILLER_0_15_167
*299 FILLER_0_15_169
*300 FILLER_0_15_187
*301 FILLER_0_15_2
*302 FILLER_0_15_203
*303 FILLER_0_15_207
*304 FILLER_0_15_209
*305 FILLER_0_15_212
*306 FILLER_0_15_251
*307 FILLER_0_15_267
*308 FILLER_0_15_275
*309 FILLER_0_15_279
*310 FILLER_0_15_282
*311 FILLER_0_15_346
*312 FILLER_0_15_348
*313 FILLER_0_15_66
*314 FILLER_0_15_72
*315 FILLER_0_16_101
*316 FILLER_0_16_107
*317 FILLER_0_16_139
*318 FILLER_0_16_142
*319 FILLER_0_16_158
*320 FILLER_0_16_162
*321 FILLER_0_16_172
*322 FILLER_0_16_174
*323 FILLER_0_16_192
*324 FILLER_0_16_194
*325 FILLER_0_16_2
*326 FILLER_0_16_224
*327 FILLER_0_16_233
*328 FILLER_0_16_241
*329 FILLER_0_16_247
*330 FILLER_0_16_311
*331 FILLER_0_16_317
*332 FILLER_0_16_321
*333 FILLER_0_16_34
*334 FILLER_0_16_37
*335 FILLER_0_17_104
*336 FILLER_0_17_108
*337 FILLER_0_17_110
*338 FILLER_0_17_148
*339 FILLER_0_17_150
*340 FILLER_0_17_155
*341 FILLER_0_17_163
*342 FILLER_0_17_180
*343 FILLER_0_17_187
*344 FILLER_0_17_197
*345 FILLER_0_17_2
*346 FILLER_0_17_209
*347 FILLER_0_17_217
*348 FILLER_0_17_221
*349 FILLER_0_17_223
*350 FILLER_0_17_226
*351 FILLER_0_17_258
*352 FILLER_0_17_274
*353 FILLER_0_17_278
*354 FILLER_0_17_282
*355 FILLER_0_17_346
*356 FILLER_0_17_348
*357 FILLER_0_17_66
*358 FILLER_0_17_72
*359 FILLER_0_18_101
*360 FILLER_0_18_123
*361 FILLER_0_18_131
*362 FILLER_0_18_133
*363 FILLER_0_18_144
*364 FILLER_0_18_158
*365 FILLER_0_18_165
*366 FILLER_0_18_172
*367 FILLER_0_18_174
*368 FILLER_0_18_2
*369 FILLER_0_18_227
*370 FILLER_0_18_234
*371 FILLER_0_18_242
*372 FILLER_0_18_244
*373 FILLER_0_18_247
*374 FILLER_0_18_311
*375 FILLER_0_18_317
*376 FILLER_0_18_321
*377 FILLER_0_18_34
*378 FILLER_0_18_37
*379 FILLER_0_19_126
*380 FILLER_0_19_135
*381 FILLER_0_19_139
*382 FILLER_0_19_142
*383 FILLER_0_19_150
*384 FILLER_0_19_157
*385 FILLER_0_19_201
*386 FILLER_0_19_205
*387 FILLER_0_19_207
*388 FILLER_0_19_212
*389 FILLER_0_19_252
*390 FILLER_0_19_268
*391 FILLER_0_19_276
*392 FILLER_0_19_28
*393 FILLER_0_19_282
*394 FILLER_0_19_314
*395 FILLER_0_19_322
*396 FILLER_0_19_60
*397 FILLER_0_19_68
*398 FILLER_0_19_72
*399 FILLER_0_19_88
*400 FILLER_0_1_136
*401 FILLER_0_1_142
*402 FILLER_0_1_150
*403 FILLER_0_1_154
*404 FILLER_0_1_156
*405 FILLER_0_1_161
*406 FILLER_0_1_193
*407 FILLER_0_1_2
*408 FILLER_0_1_209
*409 FILLER_0_1_212
*410 FILLER_0_1_276
*411 FILLER_0_1_282
*412 FILLER_0_1_346
*413 FILLER_0_1_348
*414 FILLER_0_1_66
*415 FILLER_0_1_72
*416 FILLER_0_20_101
*417 FILLER_0_20_107
*418 FILLER_0_20_117
*419 FILLER_0_20_121
*420 FILLER_0_20_123
*421 FILLER_0_20_130
*422 FILLER_0_20_137
*423 FILLER_0_20_153
*424 FILLER_0_20_161
*425 FILLER_0_20_165
*426 FILLER_0_20_173
*427 FILLER_0_20_201
*428 FILLER_0_20_209
*429 FILLER_0_20_213
*430 FILLER_0_20_253
*431 FILLER_0_20_28
*432 FILLER_0_20_285
*433 FILLER_0_20_301
*434 FILLER_0_20_309
*435 FILLER_0_20_313
*436 FILLER_0_20_317
*437 FILLER_0_20_32
*438 FILLER_0_20_321
*439 FILLER_0_20_34
*440 FILLER_0_20_37
*441 FILLER_0_21_113
*442 FILLER_0_21_117
*443 FILLER_0_21_125
*444 FILLER_0_21_133
*445 FILLER_0_21_137
*446 FILLER_0_21_139
*447 FILLER_0_21_142
*448 FILLER_0_21_144
*449 FILLER_0_21_157
*450 FILLER_0_21_165
*451 FILLER_0_21_189
*452 FILLER_0_21_191
*453 FILLER_0_21_2
*454 FILLER_0_21_205
*455 FILLER_0_21_209
*456 FILLER_0_21_212
*457 FILLER_0_21_216
*458 FILLER_0_21_218
*459 FILLER_0_21_241
*460 FILLER_0_21_273
*461 FILLER_0_21_277
*462 FILLER_0_21_279
*463 FILLER_0_21_282
*464 FILLER_0_21_314
*465 FILLER_0_21_322
*466 FILLER_0_21_66
*467 FILLER_0_21_72
*468 FILLER_0_21_80
*469 FILLER_0_22_100
*470 FILLER_0_22_104
*471 FILLER_0_22_107
*472 FILLER_0_22_119
*473 FILLER_0_22_151
*474 FILLER_0_22_155
*475 FILLER_0_22_157
*476 FILLER_0_22_160
*477 FILLER_0_22_162
*478 FILLER_0_22_198
*479 FILLER_0_22_2
*480 FILLER_0_22_206
*481 FILLER_0_22_238
*482 FILLER_0_22_242
*483 FILLER_0_22_244
*484 FILLER_0_22_247
*485 FILLER_0_22_311
*486 FILLER_0_22_317
*487 FILLER_0_22_34
*488 FILLER_0_22_37
*489 FILLER_0_22_69
*490 FILLER_0_22_85
*491 FILLER_0_22_93
*492 FILLER_0_22_95
*493 FILLER_0_23_123
*494 FILLER_0_23_132
*495 FILLER_0_23_212
*496 FILLER_0_23_224
*497 FILLER_0_23_256
*498 FILLER_0_23_272
*499 FILLER_0_23_28
*500 FILLER_0_23_282
*501 FILLER_0_23_346
*502 FILLER_0_23_348
*503 FILLER_0_23_60
*504 FILLER_0_23_68
*505 FILLER_0_23_72
*506 FILLER_0_23_80
*507 FILLER_0_24_101
*508 FILLER_0_24_107
*509 FILLER_0_24_109
*510 FILLER_0_24_112
*511 FILLER_0_24_2
*512 FILLER_0_24_202
*513 FILLER_0_24_204
*514 FILLER_0_24_242
*515 FILLER_0_24_244
*516 FILLER_0_24_247
*517 FILLER_0_24_311
*518 FILLER_0_24_317
*519 FILLER_0_24_321
*520 FILLER_0_24_34
*521 FILLER_0_24_37
*522 FILLER_0_25_114
*523 FILLER_0_25_118
*524 FILLER_0_25_127
*525 FILLER_0_25_131
*526 FILLER_0_25_133
*527 FILLER_0_25_139
*528 FILLER_0_25_142
*529 FILLER_0_25_151
*530 FILLER_0_25_155
*531 FILLER_0_25_206
*532 FILLER_0_25_212
*533 FILLER_0_25_229
*534 FILLER_0_25_261
*535 FILLER_0_25_277
*536 FILLER_0_25_279
*537 FILLER_0_25_28
*538 FILLER_0_25_282
*539 FILLER_0_25_346
*540 FILLER_0_25_348
*541 FILLER_0_25_60
*542 FILLER_0_25_68
*543 FILLER_0_25_72
*544 FILLER_0_25_80
*545 FILLER_0_25_84
*546 FILLER_0_26_101
*547 FILLER_0_26_107
*548 FILLER_0_26_173
*549 FILLER_0_26_177
*550 FILLER_0_26_179
*551 FILLER_0_26_2
*552 FILLER_0_26_211
*553 FILLER_0_26_213
*554 FILLER_0_26_243
*555 FILLER_0_26_247
*556 FILLER_0_26_311
*557 FILLER_0_26_317
*558 FILLER_0_26_321
*559 FILLER_0_26_34
*560 FILLER_0_26_37
*561 FILLER_0_27_124
*562 FILLER_0_27_128
*563 FILLER_0_27_136
*564 FILLER_0_27_142
*565 FILLER_0_27_174
*566 FILLER_0_27_178
*567 FILLER_0_27_180
*568 FILLER_0_27_189
*569 FILLER_0_27_193
*570 FILLER_0_27_2
*571 FILLER_0_27_206
*572 FILLER_0_27_212
*573 FILLER_0_27_276
*574 FILLER_0_27_282
*575 FILLER_0_27_314
*576 FILLER_0_27_322
*577 FILLER_0_27_66
*578 FILLER_0_27_72
*579 FILLER_0_27_88
*580 FILLER_0_28_107
*581 FILLER_0_28_121
*582 FILLER_0_28_125
*583 FILLER_0_28_127
*584 FILLER_0_28_132
*585 FILLER_0_28_143
*586 FILLER_0_28_147
*587 FILLER_0_28_156
*588 FILLER_0_28_158
*589 FILLER_0_28_164
*590 FILLER_0_28_172
*591 FILLER_0_28_174
*592 FILLER_0_28_177
*593 FILLER_0_28_179
*594 FILLER_0_28_190
*595 FILLER_0_28_222
*596 FILLER_0_28_238
*597 FILLER_0_28_242
*598 FILLER_0_28_244
*599 FILLER_0_28_247
*600 FILLER_0_28_28
*601 FILLER_0_28_311
*602 FILLER_0_28_317
*603 FILLER_0_28_32
*604 FILLER_0_28_34
*605 FILLER_0_28_37
*606 FILLER_0_28_69
*607 FILLER_0_28_85
*608 FILLER_0_28_93
*609 FILLER_0_28_97
*610 FILLER_0_29_104
*611 FILLER_0_29_108
*612 FILLER_0_29_110
*613 FILLER_0_29_171
*614 FILLER_0_29_175
*615 FILLER_0_29_183
*616 FILLER_0_29_189
*617 FILLER_0_29_201
*618 FILLER_0_29_209
*619 FILLER_0_29_217
*620 FILLER_0_29_249
*621 FILLER_0_29_265
*622 FILLER_0_29_273
*623 FILLER_0_29_277
*624 FILLER_0_29_279
*625 FILLER_0_29_28
*626 FILLER_0_29_282
*627 FILLER_0_29_346
*628 FILLER_0_29_348
*629 FILLER_0_29_60
*630 FILLER_0_29_68
*631 FILLER_0_29_72
*632 FILLER_0_2_101
*633 FILLER_0_2_107
*634 FILLER_0_2_171
*635 FILLER_0_2_177
*636 FILLER_0_2_2
*637 FILLER_0_2_241
*638 FILLER_0_2_247
*639 FILLER_0_2_311
*640 FILLER_0_2_317
*641 FILLER_0_2_34
*642 FILLER_0_2_37
*643 FILLER_0_30_101
*644 FILLER_0_30_107
*645 FILLER_0_30_139
*646 FILLER_0_30_170
*647 FILLER_0_30_174
*648 FILLER_0_30_187
*649 FILLER_0_30_189
*650 FILLER_0_30_221
*651 FILLER_0_30_237
*652 FILLER_0_30_247
*653 FILLER_0_30_28
*654 FILLER_0_30_311
*655 FILLER_0_30_317
*656 FILLER_0_30_32
*657 FILLER_0_30_34
*658 FILLER_0_30_37
*659 FILLER_0_31_136
*660 FILLER_0_31_142
*661 FILLER_0_31_150
*662 FILLER_0_31_154
*663 FILLER_0_31_194
*664 FILLER_0_31_2
*665 FILLER_0_31_203
*666 FILLER_0_31_207
*667 FILLER_0_31_209
*668 FILLER_0_31_217
*669 FILLER_0_31_249
*670 FILLER_0_31_265
*671 FILLER_0_31_273
*672 FILLER_0_31_277
*673 FILLER_0_31_279
*674 FILLER_0_31_282
*675 FILLER_0_31_346
*676 FILLER_0_31_348
*677 FILLER_0_31_66
*678 FILLER_0_31_72
*679 FILLER_0_32_101
*680 FILLER_0_32_107
*681 FILLER_0_32_171
*682 FILLER_0_32_177
*683 FILLER_0_32_185
*684 FILLER_0_32_187
*685 FILLER_0_32_2
*686 FILLER_0_32_219
*687 FILLER_0_32_235
*688 FILLER_0_32_243
*689 FILLER_0_32_247
*690 FILLER_0_32_311
*691 FILLER_0_32_317
*692 FILLER_0_32_34
*693 FILLER_0_32_37
*694 FILLER_0_33_136
*695 FILLER_0_33_142
*696 FILLER_0_33_2
*697 FILLER_0_33_206
*698 FILLER_0_33_212
*699 FILLER_0_33_276
*700 FILLER_0_33_282
*701 FILLER_0_33_346
*702 FILLER_0_33_348
*703 FILLER_0_33_66
*704 FILLER_0_33_72
*705 FILLER_0_34_101
*706 FILLER_0_34_107
*707 FILLER_0_34_171
*708 FILLER_0_34_177
*709 FILLER_0_34_2
*710 FILLER_0_34_241
*711 FILLER_0_34_247
*712 FILLER_0_34_311
*713 FILLER_0_34_317
*714 FILLER_0_34_34
*715 FILLER_0_34_37
*716 FILLER_0_35_136
*717 FILLER_0_35_142
*718 FILLER_0_35_2
*719 FILLER_0_35_206
*720 FILLER_0_35_212
*721 FILLER_0_35_276
*722 FILLER_0_35_282
*723 FILLER_0_35_346
*724 FILLER_0_35_348
*725 FILLER_0_35_66
*726 FILLER_0_35_72
*727 FILLER_0_36_101
*728 FILLER_0_36_107
*729 FILLER_0_36_171
*730 FILLER_0_36_177
*731 FILLER_0_36_2
*732 FILLER_0_36_241
*733 FILLER_0_36_247
*734 FILLER_0_36_311
*735 FILLER_0_36_317
*736 FILLER_0_36_34
*737 FILLER_0_36_37
*738 FILLER_0_37_136
*739 FILLER_0_37_142
*740 FILLER_0_37_2
*741 FILLER_0_37_206
*742 FILLER_0_37_212
*743 FILLER_0_37_276
*744 FILLER_0_37_282
*745 FILLER_0_37_346
*746 FILLER_0_37_348
*747 FILLER_0_37_66
*748 FILLER_0_37_72
*749 FILLER_0_38_101
*750 FILLER_0_38_107
*751 FILLER_0_38_171
*752 FILLER_0_38_177
*753 FILLER_0_38_2
*754 FILLER_0_38_241
*755 FILLER_0_38_247
*756 FILLER_0_38_311
*757 FILLER_0_38_317
*758 FILLER_0_38_34
*759 FILLER_0_38_37
*760 FILLER_0_39_136
*761 FILLER_0_39_142
*762 FILLER_0_39_2
*763 FILLER_0_39_206
*764 FILLER_0_39_212
*765 FILLER_0_39_276
*766 FILLER_0_39_282
*767 FILLER_0_39_346
*768 FILLER_0_39_348
*769 FILLER_0_39_66
*770 FILLER_0_39_72
*771 FILLER_0_3_136
*772 FILLER_0_3_142
*773 FILLER_0_3_2
*774 FILLER_0_3_206
*775 FILLER_0_3_212
*776 FILLER_0_3_276
*777 FILLER_0_3_282
*778 FILLER_0_3_346
*779 FILLER_0_3_348
*780 FILLER_0_3_66
*781 FILLER_0_3_72
*782 FILLER_0_40_101
*783 FILLER_0_40_107
*784 FILLER_0_40_171
*785 FILLER_0_40_177
*786 FILLER_0_40_2
*787 FILLER_0_40_241
*788 FILLER_0_40_247
*789 FILLER_0_40_311
*790 FILLER_0_40_317
*791 FILLER_0_40_34
*792 FILLER_0_40_37
*793 FILLER_0_41_136
*794 FILLER_0_41_142
*795 FILLER_0_41_2
*796 FILLER_0_41_206
*797 FILLER_0_41_212
*798 FILLER_0_41_276
*799 FILLER_0_41_282
*800 FILLER_0_41_346
*801 FILLER_0_41_348
*802 FILLER_0_41_66
*803 FILLER_0_41_72
*804 FILLER_0_42_101
*805 FILLER_0_42_107
*806 FILLER_0_42_171
*807 FILLER_0_42_177
*808 FILLER_0_42_2
*809 FILLER_0_42_241
*810 FILLER_0_42_247
*811 FILLER_0_42_311
*812 FILLER_0_42_317
*813 FILLER_0_42_34
*814 FILLER_0_42_37
*815 FILLER_0_43_136
*816 FILLER_0_43_168
*817 FILLER_0_43_195
*818 FILLER_0_43_2
*819 FILLER_0_43_203
*820 FILLER_0_43_207
*821 FILLER_0_43_209
*822 FILLER_0_43_212
*823 FILLER_0_43_216
*824 FILLER_0_43_243
*825 FILLER_0_43_275
*826 FILLER_0_43_279
*827 FILLER_0_43_282
*828 FILLER_0_43_346
*829 FILLER_0_43_348
*830 FILLER_0_43_66
*831 FILLER_0_43_72
*832 FILLER_0_44_104
*833 FILLER_0_44_138
*834 FILLER_0_44_142
*835 FILLER_0_44_172
*836 FILLER_0_44_176
*837 FILLER_0_44_2
*838 FILLER_0_44_206
*839 FILLER_0_44_210
*840 FILLER_0_44_237
*841 FILLER_0_44_240
*842 FILLER_0_44_274
*843 FILLER_0_44_308
*844 FILLER_0_44_342
*845 FILLER_0_44_346
*846 FILLER_0_44_348
*847 FILLER_0_44_36
*848 FILLER_0_44_70
*849 FILLER_0_4_101
*850 FILLER_0_4_107
*851 FILLER_0_4_171
*852 FILLER_0_4_177
*853 FILLER_0_4_2
*854 FILLER_0_4_241
*855 FILLER_0_4_247
*856 FILLER_0_4_311
*857 FILLER_0_4_317
*858 FILLER_0_4_34
*859 FILLER_0_4_37
*860 FILLER_0_5_136
*861 FILLER_0_5_142
*862 FILLER_0_5_2
*863 FILLER_0_5_206
*864 FILLER_0_5_212
*865 FILLER_0_5_276
*866 FILLER_0_5_282
*867 FILLER_0_5_346
*868 FILLER_0_5_348
*869 FILLER_0_5_66
*870 FILLER_0_5_72
*871 FILLER_0_6_101
*872 FILLER_0_6_107
*873 FILLER_0_6_171
*874 FILLER_0_6_177
*875 FILLER_0_6_2
*876 FILLER_0_6_241
*877 FILLER_0_6_247
*878 FILLER_0_6_311
*879 FILLER_0_6_317
*880 FILLER_0_6_34
*881 FILLER_0_6_37
*882 FILLER_0_7_136
*883 FILLER_0_7_142
*884 FILLER_0_7_2
*885 FILLER_0_7_206
*886 FILLER_0_7_212
*887 FILLER_0_7_276
*888 FILLER_0_7_282
*889 FILLER_0_7_346
*890 FILLER_0_7_348
*891 FILLER_0_7_66
*892 FILLER_0_7_72
*893 FILLER_0_8_101
*894 FILLER_0_8_107
*895 FILLER_0_8_171
*896 FILLER_0_8_177
*897 FILLER_0_8_2
*898 FILLER_0_8_241
*899 FILLER_0_8_247
*900 FILLER_0_8_311
*901 FILLER_0_8_317
*902 FILLER_0_8_34
*903 FILLER_0_8_37
*904 FILLER_0_9_136
*905 FILLER_0_9_142
*906 FILLER_0_9_2
*907 FILLER_0_9_206
*908 FILLER_0_9_212
*909 FILLER_0_9_276
*910 FILLER_0_9_282
*911 FILLER_0_9_346
*912 FILLER_0_9_348
*913 FILLER_0_9_66
*914 FILLER_0_9_72
*915 PHY_EDGE_ROW_0_Left_45
*916 PHY_EDGE_ROW_0_Right_0
*917 PHY_EDGE_ROW_10_Left_55
*918 PHY_EDGE_ROW_10_Right_10
*919 PHY_EDGE_ROW_11_Left_56
*920 PHY_EDGE_ROW_11_Right_11
*921 PHY_EDGE_ROW_12_Left_57
*922 PHY_EDGE_ROW_12_Right_12
*923 PHY_EDGE_ROW_13_Left_58
*924 PHY_EDGE_ROW_13_Right_13
*925 PHY_EDGE_ROW_14_Left_59
*926 PHY_EDGE_ROW_14_Right_14
*927 PHY_EDGE_ROW_15_Left_60
*928 PHY_EDGE_ROW_15_Right_15
*929 PHY_EDGE_ROW_16_Left_61
*930 PHY_EDGE_ROW_16_Right_16
*931 PHY_EDGE_ROW_17_Left_62
*932 PHY_EDGE_ROW_17_Right_17
*933 PHY_EDGE_ROW_18_Left_63
*934 PHY_EDGE_ROW_18_Right_18
*935 PHY_EDGE_ROW_19_Left_64
*936 PHY_EDGE_ROW_19_Right_19
*937 PHY_EDGE_ROW_1_Left_46
*938 PHY_EDGE_ROW_1_Right_1
*939 PHY_EDGE_ROW_20_Left_65
*940 PHY_EDGE_ROW_20_Right_20
*941 PHY_EDGE_ROW_21_Left_66
*942 PHY_EDGE_ROW_21_Right_21
*943 PHY_EDGE_ROW_22_Left_67
*944 PHY_EDGE_ROW_22_Right_22
*945 PHY_EDGE_ROW_23_Left_68
*946 PHY_EDGE_ROW_23_Right_23
*947 PHY_EDGE_ROW_24_Left_69
*948 PHY_EDGE_ROW_24_Right_24
*949 PHY_EDGE_ROW_25_Left_70
*950 PHY_EDGE_ROW_25_Right_25
*951 PHY_EDGE_ROW_26_Left_71
*952 PHY_EDGE_ROW_26_Right_26
*953 PHY_EDGE_ROW_27_Left_72
*954 PHY_EDGE_ROW_27_Right_27
*955 PHY_EDGE_ROW_28_Left_73
*956 PHY_EDGE_ROW_28_Right_28
*957 PHY_EDGE_ROW_29_Left_74
*958 PHY_EDGE_ROW_29_Right_29
*959 PHY_EDGE_ROW_2_Left_47
*960 PHY_EDGE_ROW_2_Right_2
*961 PHY_EDGE_ROW_30_Left_75
*962 PHY_EDGE_ROW_30_Right_30
*963 PHY_EDGE_ROW_31_Left_76
*964 PHY_EDGE_ROW_31_Right_31
*965 PHY_EDGE_ROW_32_Left_77
*966 PHY_EDGE_ROW_32_Right_32
*967 PHY_EDGE_ROW_33_Left_78
*968 PHY_EDGE_ROW_33_Right_33
*969 PHY_EDGE_ROW_34_Left_79
*970 PHY_EDGE_ROW_34_Right_34
*971 PHY_EDGE_ROW_35_Left_80
*972 PHY_EDGE_ROW_35_Right_35
*973 PHY_EDGE_ROW_36_Left_81
*974 PHY_EDGE_ROW_36_Right_36
*975 PHY_EDGE_ROW_37_Left_82
*976 PHY_EDGE_ROW_37_Right_37
*977 PHY_EDGE_ROW_38_Left_83
*978 PHY_EDGE_ROW_38_Right_38
*979 PHY_EDGE_ROW_39_Left_84
*980 PHY_EDGE_ROW_39_Right_39
*981 PHY_EDGE_ROW_3_Left_48
*982 PHY_EDGE_ROW_3_Right_3
*983 PHY_EDGE_ROW_40_Left_85
*984 PHY_EDGE_ROW_40_Right_40
*985 PHY_EDGE_ROW_41_Left_86
*986 PHY_EDGE_ROW_41_Right_41
*987 PHY_EDGE_ROW_42_Left_87
*988 PHY_EDGE_ROW_42_Right_42
*989 PHY_EDGE_ROW_43_Left_88
*990 PHY_EDGE_ROW_43_Right_43
*991 PHY_EDGE_ROW_44_Left_89
*992 PHY_EDGE_ROW_44_Right_44
*993 PHY_EDGE_ROW_4_Left_49
*994 PHY_EDGE_ROW_4_Right_4
*995 PHY_EDGE_ROW_5_Left_50
*996 PHY_EDGE_ROW_5_Right_5
*997 PHY_EDGE_ROW_6_Left_51
*998 PHY_EDGE_ROW_6_Right_6
*999 PHY_EDGE_ROW_7_Left_52
*1000 PHY_EDGE_ROW_7_Right_7
*1001 PHY_EDGE_ROW_8_Left_53
*1002 PHY_EDGE_ROW_8_Right_8
*1003 PHY_EDGE_ROW_9_Left_54
*1004 PHY_EDGE_ROW_9_Right_9
*1005 TAP_TAPCELL_ROW_0_90
*1006 TAP_TAPCELL_ROW_0_91
*1007 TAP_TAPCELL_ROW_0_92
*1008 TAP_TAPCELL_ROW_0_93
*1009 TAP_TAPCELL_ROW_0_94
*1010 TAP_TAPCELL_ROW_0_95
*1011 TAP_TAPCELL_ROW_0_96
*1012 TAP_TAPCELL_ROW_0_97
*1013 TAP_TAPCELL_ROW_0_98
*1014 TAP_TAPCELL_ROW_0_99
*1015 TAP_TAPCELL_ROW_10_140
*1016 TAP_TAPCELL_ROW_10_141
*1017 TAP_TAPCELL_ROW_10_142
*1018 TAP_TAPCELL_ROW_10_143
*1019 TAP_TAPCELL_ROW_10_144
*1020 TAP_TAPCELL_ROW_11_145
*1021 TAP_TAPCELL_ROW_11_146
*1022 TAP_TAPCELL_ROW_11_147
*1023 TAP_TAPCELL_ROW_11_148
*1024 TAP_TAPCELL_ROW_12_149
*1025 TAP_TAPCELL_ROW_12_150
*1026 TAP_TAPCELL_ROW_12_151
*1027 TAP_TAPCELL_ROW_12_152
*1028 TAP_TAPCELL_ROW_12_153
*1029 TAP_TAPCELL_ROW_13_154
*1030 TAP_TAPCELL_ROW_13_155
*1031 TAP_TAPCELL_ROW_13_156
*1032 TAP_TAPCELL_ROW_13_157
*1033 TAP_TAPCELL_ROW_14_158
*1034 TAP_TAPCELL_ROW_14_159
*1035 TAP_TAPCELL_ROW_14_160
*1036 TAP_TAPCELL_ROW_14_161
*1037 TAP_TAPCELL_ROW_14_162
*1038 TAP_TAPCELL_ROW_15_163
*1039 TAP_TAPCELL_ROW_15_164
*1040 TAP_TAPCELL_ROW_15_165
*1041 TAP_TAPCELL_ROW_15_166
*1042 TAP_TAPCELL_ROW_16_167
*1043 TAP_TAPCELL_ROW_16_168
*1044 TAP_TAPCELL_ROW_16_169
*1045 TAP_TAPCELL_ROW_16_170
*1046 TAP_TAPCELL_ROW_16_171
*1047 TAP_TAPCELL_ROW_17_172
*1048 TAP_TAPCELL_ROW_17_173
*1049 TAP_TAPCELL_ROW_17_174
*1050 TAP_TAPCELL_ROW_17_175
*1051 TAP_TAPCELL_ROW_18_176
*1052 TAP_TAPCELL_ROW_18_177
*1053 TAP_TAPCELL_ROW_18_178
*1054 TAP_TAPCELL_ROW_18_179
*1055 TAP_TAPCELL_ROW_18_180
*1056 TAP_TAPCELL_ROW_19_181
*1057 TAP_TAPCELL_ROW_19_182
*1058 TAP_TAPCELL_ROW_19_183
*1059 TAP_TAPCELL_ROW_19_184
*1060 TAP_TAPCELL_ROW_1_100
*1061 TAP_TAPCELL_ROW_1_101
*1062 TAP_TAPCELL_ROW_1_102
*1063 TAP_TAPCELL_ROW_1_103
*1064 TAP_TAPCELL_ROW_20_185
*1065 TAP_TAPCELL_ROW_20_186
*1066 TAP_TAPCELL_ROW_20_187
*1067 TAP_TAPCELL_ROW_20_188
*1068 TAP_TAPCELL_ROW_20_189
*1069 TAP_TAPCELL_ROW_21_190
*1070 TAP_TAPCELL_ROW_21_191
*1071 TAP_TAPCELL_ROW_21_192
*1072 TAP_TAPCELL_ROW_21_193
*1073 TAP_TAPCELL_ROW_22_194
*1074 TAP_TAPCELL_ROW_22_195
*1075 TAP_TAPCELL_ROW_22_196
*1076 TAP_TAPCELL_ROW_22_197
*1077 TAP_TAPCELL_ROW_22_198
*1078 TAP_TAPCELL_ROW_23_199
*1079 TAP_TAPCELL_ROW_23_200
*1080 TAP_TAPCELL_ROW_23_201
*1081 TAP_TAPCELL_ROW_23_202
*1082 TAP_TAPCELL_ROW_24_203
*1083 TAP_TAPCELL_ROW_24_204
*1084 TAP_TAPCELL_ROW_24_205
*1085 TAP_TAPCELL_ROW_24_206
*1086 TAP_TAPCELL_ROW_24_207
*1087 TAP_TAPCELL_ROW_25_208
*1088 TAP_TAPCELL_ROW_25_209
*1089 TAP_TAPCELL_ROW_25_210
*1090 TAP_TAPCELL_ROW_25_211
*1091 TAP_TAPCELL_ROW_26_212
*1092 TAP_TAPCELL_ROW_26_213
*1093 TAP_TAPCELL_ROW_26_214
*1094 TAP_TAPCELL_ROW_26_215
*1095 TAP_TAPCELL_ROW_26_216
*1096 TAP_TAPCELL_ROW_27_217
*1097 TAP_TAPCELL_ROW_27_218
*1098 TAP_TAPCELL_ROW_27_219
*1099 TAP_TAPCELL_ROW_27_220
*1100 TAP_TAPCELL_ROW_28_221
*1101 TAP_TAPCELL_ROW_28_222
*1102 TAP_TAPCELL_ROW_28_223
*1103 TAP_TAPCELL_ROW_28_224
*1104 TAP_TAPCELL_ROW_28_225
*1105 TAP_TAPCELL_ROW_29_226
*1106 TAP_TAPCELL_ROW_29_227
*1107 TAP_TAPCELL_ROW_29_228
*1108 TAP_TAPCELL_ROW_29_229
*1109 TAP_TAPCELL_ROW_2_104
*1110 TAP_TAPCELL_ROW_2_105
*1111 TAP_TAPCELL_ROW_2_106
*1112 TAP_TAPCELL_ROW_2_107
*1113 TAP_TAPCELL_ROW_2_108
*1114 TAP_TAPCELL_ROW_30_230
*1115 TAP_TAPCELL_ROW_30_231
*1116 TAP_TAPCELL_ROW_30_232
*1117 TAP_TAPCELL_ROW_30_233
*1118 TAP_TAPCELL_ROW_30_234
*1119 TAP_TAPCELL_ROW_31_235
*1120 TAP_TAPCELL_ROW_31_236
*1121 TAP_TAPCELL_ROW_31_237
*1122 TAP_TAPCELL_ROW_31_238
*1123 TAP_TAPCELL_ROW_32_239
*1124 TAP_TAPCELL_ROW_32_240
*1125 TAP_TAPCELL_ROW_32_241
*1126 TAP_TAPCELL_ROW_32_242
*1127 TAP_TAPCELL_ROW_32_243
*1128 TAP_TAPCELL_ROW_33_244
*1129 TAP_TAPCELL_ROW_33_245
*1130 TAP_TAPCELL_ROW_33_246
*1131 TAP_TAPCELL_ROW_33_247
*1132 TAP_TAPCELL_ROW_34_248
*1133 TAP_TAPCELL_ROW_34_249
*1134 TAP_TAPCELL_ROW_34_250
*1135 TAP_TAPCELL_ROW_34_251
*1136 TAP_TAPCELL_ROW_34_252
*1137 TAP_TAPCELL_ROW_35_253
*1138 TAP_TAPCELL_ROW_35_254
*1139 TAP_TAPCELL_ROW_35_255
*1140 TAP_TAPCELL_ROW_35_256
*1141 TAP_TAPCELL_ROW_36_257
*1142 TAP_TAPCELL_ROW_36_258
*1143 TAP_TAPCELL_ROW_36_259
*1144 TAP_TAPCELL_ROW_36_260
*1145 TAP_TAPCELL_ROW_36_261
*1146 TAP_TAPCELL_ROW_37_262
*1147 TAP_TAPCELL_ROW_37_263
*1148 TAP_TAPCELL_ROW_37_264
*1149 TAP_TAPCELL_ROW_37_265
*1150 TAP_TAPCELL_ROW_38_266
*1151 TAP_TAPCELL_ROW_38_267
*1152 TAP_TAPCELL_ROW_38_268
*1153 TAP_TAPCELL_ROW_38_269
*1154 TAP_TAPCELL_ROW_38_270
*1155 TAP_TAPCELL_ROW_39_271
*1156 TAP_TAPCELL_ROW_39_272
*1157 TAP_TAPCELL_ROW_39_273
*1158 TAP_TAPCELL_ROW_39_274
*1159 TAP_TAPCELL_ROW_3_109
*1160 TAP_TAPCELL_ROW_3_110
*1161 TAP_TAPCELL_ROW_3_111
*1162 TAP_TAPCELL_ROW_3_112
*1163 TAP_TAPCELL_ROW_40_275
*1164 TAP_TAPCELL_ROW_40_276
*1165 TAP_TAPCELL_ROW_40_277
*1166 TAP_TAPCELL_ROW_40_278
*1167 TAP_TAPCELL_ROW_40_279
*1168 TAP_TAPCELL_ROW_41_280
*1169 TAP_TAPCELL_ROW_41_281
*1170 TAP_TAPCELL_ROW_41_282
*1171 TAP_TAPCELL_ROW_41_283
*1172 TAP_TAPCELL_ROW_42_284
*1173 TAP_TAPCELL_ROW_42_285
*1174 TAP_TAPCELL_ROW_42_286
*1175 TAP_TAPCELL_ROW_42_287
*1176 TAP_TAPCELL_ROW_42_288
*1177 TAP_TAPCELL_ROW_43_289
*1178 TAP_TAPCELL_ROW_43_290
*1179 TAP_TAPCELL_ROW_43_291
*1180 TAP_TAPCELL_ROW_43_292
*1181 TAP_TAPCELL_ROW_44_293
*1182 TAP_TAPCELL_ROW_44_294
*1183 TAP_TAPCELL_ROW_44_295
*1184 TAP_TAPCELL_ROW_44_296
*1185 TAP_TAPCELL_ROW_44_297
*1186 TAP_TAPCELL_ROW_44_298
*1187 TAP_TAPCELL_ROW_44_299
*1188 TAP_TAPCELL_ROW_44_300
*1189 TAP_TAPCELL_ROW_44_301
*1190 TAP_TAPCELL_ROW_44_302
*1191 TAP_TAPCELL_ROW_4_113
*1192 TAP_TAPCELL_ROW_4_114
*1193 TAP_TAPCELL_ROW_4_115
*1194 TAP_TAPCELL_ROW_4_116
*1195 TAP_TAPCELL_ROW_4_117
*1196 TAP_TAPCELL_ROW_5_118
*1197 TAP_TAPCELL_ROW_5_119
*1198 TAP_TAPCELL_ROW_5_120
*1199 TAP_TAPCELL_ROW_5_121
*1200 TAP_TAPCELL_ROW_6_122
*1201 TAP_TAPCELL_ROW_6_123
*1202 TAP_TAPCELL_ROW_6_124
*1203 TAP_TAPCELL_ROW_6_125
*1204 TAP_TAPCELL_ROW_6_126
*1205 TAP_TAPCELL_ROW_7_127
*1206 TAP_TAPCELL_ROW_7_128
*1207 TAP_TAPCELL_ROW_7_129
*1208 TAP_TAPCELL_ROW_7_130
*1209 TAP_TAPCELL_ROW_8_131
*1210 TAP_TAPCELL_ROW_8_132
*1211 TAP_TAPCELL_ROW_8_133
*1212 TAP_TAPCELL_ROW_8_134
*1213 TAP_TAPCELL_ROW_8_135
*1214 TAP_TAPCELL_ROW_9_136
*1215 TAP_TAPCELL_ROW_9_137
*1216 TAP_TAPCELL_ROW_9_138
*1217 TAP_TAPCELL_ROW_9_139
*1218 _105_
*1219 _106_
*1220 _107_
*1221 _108_
*1222 _109_
*1223 _110_
*1224 _111_
*1225 _112_
*1226 _113_
*1227 _114_
*1228 _115_
*1229 _116_
*1230 _117_
*1231 _118_
*1232 _119_
*1233 _120_
*1234 _121_
*1235 _122_
*1236 _123_
*1237 _124_
*1238 _125_
*1239 _126_
*1240 _127_
*1241 _128_
*1242 _129_
*1243 _130_
*1244 _131_
*1245 _132_
*1246 _133_
*1247 _134_
*1248 _135_
*1249 _136_
*1250 _137_
*1251 _138_
*1252 _139_
*1253 _140_
*1254 _141_
*1255 _142_
*1256 _143_
*1257 _144_
*1258 _145_
*1259 _146_
*1260 _147_
*1261 _148_
*1262 _149_
*1263 _150_
*1264 _151_
*1265 _152_
*1266 _153_
*1267 _154_
*1268 _155_
*1269 _156_
*1270 _157_
*1271 _158_
*1272 _159_
*1273 _160_
*1274 _161_
*1275 _162_
*1276 _163_
*1277 _164_
*1278 _165_
*1279 _166_
*1280 _167_
*1281 _168_
*1282 _169_
*1283 _170_
*1284 _171_
*1285 _172_
*1286 _173_
*1287 _174_
*1288 _175_
*1289 _176_
*1290 _177_
*1291 _178_
*1292 _179_
*1293 _180_
*1294 _181_
*1295 _182_
*1296 _183_
*1297 _184_
*1298 _185_
*1299 _186_
*1300 _187_
*1301 _188_
*1302 _189_
*1303 _190_
*1304 _191_
*1305 _192_
*1306 _193_
*1307 _194_
*1308 _195_
*1309 _196_
*1310 _197_
*1311 _198_
*1312 _199_
*1313 _200_
*1314 _201_
*1315 _202_
*1316 _203_
*1317 _204_
*1318 _205_
*1319 _206_
*1320 _207_
*1321 _208_
*1322 _209_
*1323 _210_
*1324 _211_
*1325 _212_
*1326 _213_
*1327 _214_
*1328 _215_
*1329 _216_
*1330 _217_
*1331 _218_
*1332 _219_
*1333 _220_
*1334 _221_
*1335 _222_
*1336 _223_
*1337 _224_
*1338 _225_
*1339 _226_
*1340 _227_
*1341 _228_
*1342 _229_
*1343 _230_
*1344 _231_
*1345 _232_
*1346 _233_
*1347 _234_
*1348 _235_
*1349 _237_
*1350 _238_
*1351 _239_
*1352 clkbuf_0_clk
*1353 clkbuf_1_0__f_clk
*1354 clkbuf_1_1__f_clk
*1355 ita63_26
*1356 output1
*1357 output10
*1358 output11
*1359 output12
*1360 output13
*1361 output14
*1362 output15
*1363 output16
*1364 output17
*1365 output18
*1366 output19
*1367 output2
*1368 output20
*1369 output21
*1370 output22
*1371 output23
*1372 output24
*1373 output25
*1374 output3
*1375 output4
*1376 output5
*1377 output6
*1378 output7
*1379 output8
*1380 output9

*PORTS
clk I
segm[0] O
segm[10] O
segm[11] O
segm[12] O
segm[13] O
segm[1] O
segm[2] O
segm[3] O
segm[4] O
segm[5] O
segm[6] O
segm[7] O
segm[8] O
segm[9] O
sel[0] O
sel[10] O
sel[11] O
sel[1] O
sel[2] O
sel[3] O
sel[4] O
sel[5] O
sel[6] O
sel[7] O
sel[8] O
sel[9] O

*D_NET *1 0.0136511
*CONN
*P clk I
*I *1352:I I *D gf180mcu_fd_sc_mcu7t5v0__clkbuf_16
*I *197:I I *D gf180mcu_fd_sc_mcu7t5v0__antenna
*CAP
1 clk 0.00265863
2 *1352:I 0.000267409
3 *197:I 0
4 *1:17 0.00330316
5 *1:11 0.00569438
6 *1352:I *109:6 3.96072e-05
7 *1352:I *128:14 0
8 *1:17 *191:I 0.000103024
9 *1:17 *1225:I 0.000187826
10 *1:17 *1240:A2 0.000111373
11 *1:17 *1247:A1 0
12 *1:17 *1247:B 0
13 *1:17 *1247:C 0
14 *1:17 *1248:I 0.000400007
15 *1:17 *1278:A2 0.000223422
16 *1:17 *1292:A1 5.36452e-06
17 *1:17 *1369:I 0
18 *1:17 *61:8 4.67771e-06
19 *1:17 *96:10 0.00013981
20 *1:17 *97:12 5.29249e-05
21 *1:17 *109:6 1.77406e-05
22 *1:17 *109:19 0.000441747
23 *1:17 *110:10 0
24 *1:17 *110:12 0
25 *1:17 *110:14 0
26 *1:17 *128:14 0
*RES
1 clk *1:11 28.708 
2 *1:11 *1:17 33.204 
3 *1:17 *197:I 4.5 
4 *1:17 *1352:I 6.372 
*END

*D_NET *2 0.00191641
*CONN
*P segm[0] O
*I *1355:ZN O *D gf180mcu_fd_sc_mcu7t5v0__tiel
*CAP
1 segm[0] 0.000958207
2 *1355:ZN 0.000958207
3 segm[0] *1373:I 0
*RES
1 *1355:ZN segm[0] 11.936 
*END

*D_NET *3 0.000968172
*CONN
*P segm[10] O
*I *1356:Z O *D gf180mcu_fd_sc_mcu7t5v0__buf_8
*CAP
1 segm[10] 0.000484086
2 *1356:Z 0.000484086
*RES
1 *1356:Z segm[10] 12.692 
*END

*D_NET *4 0.000891317
*CONN
*P segm[11] O
*I *1367:Z O *D gf180mcu_fd_sc_mcu7t5v0__buf_8
*CAP
1 segm[11] 0.000415331
2 *1367:Z 0.000415331