*SPEF "ieee 1481-1999"
*DESIGN "ita6"
*DATE "11:11:11 Fri 11 11, 1111"
*VENDOR "OpenRCX"
*PROGRAM "Parallel Extraction"
*VERSION "1.0"
*DESIGN_FLOW "NAME_SCOPE LOCAL" "PIN_CAP NONE"
*DIVIDER /
*DELIMITER :
*BUS_DELIMITER []
*T_UNIT 1 NS
*C_UNIT 1 PF
*R_UNIT 1 OHM
*L_UNIT 1 HENRY

*NAME_MAP
*1 clk
*2 net25
*3 segm[10]
*4 segm[11]
*5 segm[12]
*6 segm[13]
*7 segm[1]
*8 segm[2]
*9 net26
*10 segm[4]
*11 segm[5]
*12 segm[6]
*13 segm[7]
*14 segm[8]
*15 segm[9]
*16 sel[0]
*17 sel[10]
*18 sel[11]
*19 sel[1]
*20 sel[2]
*21 sel[3]
*22 sel[4]
*23 sel[5]
*24 sel[6]
*25 sel[7]
*26 sel[8]
*27 sel[9]
*30 _000_
*31 _001_
*32 _002_
*33 _003_
*34 _004_
*35 _005_
*36 _006_
*37 _007_
*38 _008_
*39 _009_
*40 _010_
*41 _011_
*42 _012_
*43 _013_
*44 _014_
*45 _015_
*46 _016_
*47 _017_
*48 _018_
*49 _019_
*50 _020_
*51 _021_
*52 _022_
*53 _023_
*54 _024_
*55 _025_
*56 _026_
*57 _027_
*58 _028_
*59 _029_
*60 _030_
*61 _031_
*62 _032_
*63 _033_
*64 _034_
*65 _035_
*66 _036_
*67 _037_
*68 _038_
*69 _039_
*70 _040_
*71 _041_
*72 _042_
*73 _043_
*74 _044_
*75 _045_
*76 _046_
*77 _047_
*78 _048_
*79 _049_
*80 _050_
*81 _051_
*82 _052_
*83 _053_
*84 _054_
*85 _055_
*86 _056_
*87 _057_
*88 _058_
*89 _059_
*90 _060_
*91 _061_
*92 _062_
*93 _063_
*94 _064_
*95 _065_
*96 _066_
*97 _067_
*98 _068_
*99 _069_
*100 _070_
*101 _071_
*102 _072_
*103 _073_
*104 _074_
*105 _075_
*106 _076_
*107 _077_
*108 _078_
*109 _079_
*110 _080_
*111 _081_
*112 _082_
*113 _083_
*114 _084_
*115 _085_
*116 _086_
*117 _087_
*118 _088_
*119 _089_
*120 _090_
*121 _091_
*122 _092_
*123 _093_
*124 _094_
*125 _095_
*126 _096_
*127 _097_
*128 _098_
*129 _099_
*130 clknet_0_clk
*131 clknet_1_0__leaf_clk
*132 clknet_1_1__leaf_clk
*133 dut6\.count\[0\]
*134 dut6\.count\[1\]
*135 dut6\.count\[2\]
*136 dut6\.count\[3\]
*137 net1
*138 net10
*139 net11
*140 net12
*141 net13
*142 net14
*143 net15
*144 net16
*145 net17
*146 net18
*147 net19
*148 net2
*149 net20
*150 net21
*151 net22
*152 net23
*153 net24
*154 net3
*155 net4
*156 net5
*157 net6
*158 net7
*159 net8
*160 net9
*161 ANTENNA__127__A2
*162 ANTENNA__149__A3
*163 ANTENNA__152__A2
*164 ANTENNA__159__A1
*165 ANTENNA__200__CLK
*166 ANTENNA__201__CLK
*167 ANTENNA__202__CLK
*168 ANTENNA__203__CLK
*169 ANTENNA__204__CLK
*170 ANTENNA__205__CLK
*171 ANTENNA__206__CLK
*172 ANTENNA__207__CLK
*173 ANTENNA__208__CLK
*174 ANTENNA__209__CLK
*175 ANTENNA__210__CLK
*176 ANTENNA__211__CLK
*177 ANTENNA__212__CLK
*178 ANTENNA__213__CLK
*179 ANTENNA__214__CLK
*180 ANTENNA__215__CLK
*181 ANTENNA__216__CLK
*182 ANTENNA__217__CLK
*183 ANTENNA__218__CLK
*184 ANTENNA__219__CLK
*185 ANTENNA__220__CLK
*186 ANTENNA__221__CLK
*187 ANTENNA__222__CLK
*188 ANTENNA__223__CLK
*189 ANTENNA_clkbuf_0_clk_I
*190 FILLER_0_0_104
*191 FILLER_0_0_138
*192 FILLER_0_0_154
*193 FILLER_0_0_162
*194 FILLER_0_0_172
*195 FILLER_0_0_174
*196 FILLER_0_0_2
*197 FILLER_0_0_201
*198 FILLER_0_0_203
*199 FILLER_0_0_232
*200 FILLER_0_0_236
*201 FILLER_0_0_240
*202 FILLER_0_0_274
*203 FILLER_0_0_308
*204 FILLER_0_0_342
*205 FILLER_0_0_346
*206 FILLER_0_0_348
*207 FILLER_0_0_36
*208 FILLER_0_0_70
*209 FILLER_0_10_101
*210 FILLER_0_10_107
*211 FILLER_0_10_171
*212 FILLER_0_10_177
*213 FILLER_0_10_2
*214 FILLER_0_10_241
*215 FILLER_0_10_247
*216 FILLER_0_10_311
*217 FILLER_0_10_317
*218 FILLER_0_10_34
*219 FILLER_0_10_37
*220 FILLER_0_11_136
*221 FILLER_0_11_142
*222 FILLER_0_11_2
*223 FILLER_0_11_206
*224 FILLER_0_11_212
*225 FILLER_0_11_276
*226 FILLER_0_11_282
*227 FILLER_0_11_346
*228 FILLER_0_11_348
*229 FILLER_0_11_66
*230 FILLER_0_11_72
*231 FILLER_0_12_101
*232 FILLER_0_12_107
*233 FILLER_0_12_171
*234 FILLER_0_12_177
*235 FILLER_0_12_2
*236 FILLER_0_12_241
*237 FILLER_0_12_247
*238 FILLER_0_12_311
*239 FILLER_0_12_317
*240 FILLER_0_12_34
*241 FILLER_0_12_37
*242 FILLER_0_13_136
*243 FILLER_0_13_142
*244 FILLER_0_13_148
*245 FILLER_0_13_180
*246 FILLER_0_13_196
*247 FILLER_0_13_2
*248 FILLER_0_13_204
*249 FILLER_0_13_208
*250 FILLER_0_13_212
*251 FILLER_0_13_276
*252 FILLER_0_13_282
*253 FILLER_0_13_346
*254 FILLER_0_13_348
*255 FILLER_0_13_66
*256 FILLER_0_13_72
*257 FILLER_0_14_101
*258 FILLER_0_14_107
*259 FILLER_0_14_115
*260 FILLER_0_14_177
*261 FILLER_0_14_2
*262 FILLER_0_14_222
*263 FILLER_0_14_226
*264 FILLER_0_14_242
*265 FILLER_0_14_244
*266 FILLER_0_14_247
*267 FILLER_0_14_311
*268 FILLER_0_14_317
*269 FILLER_0_14_34
*270 FILLER_0_14_37
*271 FILLER_0_15_128
*272 FILLER_0_15_132
*273 FILLER_0_15_142
*274 FILLER_0_15_146
*275 FILLER_0_15_148
*276 FILLER_0_15_157
*277 FILLER_0_15_165
*278 FILLER_0_15_177
*279 FILLER_0_15_2
*280 FILLER_0_15_212
*281 FILLER_0_15_216
*282 FILLER_0_15_282
*283 FILLER_0_15_346
*284 FILLER_0_15_348
*285 FILLER_0_15_66
*286 FILLER_0_15_72
*287 FILLER_0_15_88
*288 FILLER_0_15_96
*289 FILLER_0_15_98
*290 FILLER_0_16_101
*291 FILLER_0_16_107
*292 FILLER_0_16_111
*293 FILLER_0_16_115
*294 FILLER_0_16_119
*295 FILLER_0_16_121
*296 FILLER_0_16_128
*297 FILLER_0_16_136
*298 FILLER_0_16_140
*299 FILLER_0_16_174
*300 FILLER_0_16_177
*301 FILLER_0_16_2
*302 FILLER_0_16_214
*303 FILLER_0_16_230
*304 FILLER_0_16_238
*305 FILLER_0_16_242
*306 FILLER_0_16_244
*307 FILLER_0_16_247
*308 FILLER_0_16_311
*309 FILLER_0_16_317
*310 FILLER_0_16_34
*311 FILLER_0_16_37
*312 FILLER_0_17_113
*313 FILLER_0_17_115
*314 FILLER_0_17_122
*315 FILLER_0_17_137
*316 FILLER_0_17_139
*317 FILLER_0_17_142
*318 FILLER_0_17_150
*319 FILLER_0_17_152
*320 FILLER_0_17_160
*321 FILLER_0_17_170
*322 FILLER_0_17_172
*323 FILLER_0_17_2
*324 FILLER_0_17_203
*325 FILLER_0_17_207
*326 FILLER_0_17_209
*327 FILLER_0_17_212
*328 FILLER_0_17_220
*329 FILLER_0_17_224
*330 FILLER_0_17_232
*331 FILLER_0_17_264
*332 FILLER_0_17_282
*333 FILLER_0_17_346
*334 FILLER_0_17_348
*335 FILLER_0_17_66
*336 FILLER_0_17_72
*337 FILLER_0_17_80
*338 FILLER_0_18_101
*339 FILLER_0_18_107
*340 FILLER_0_18_131
*341 FILLER_0_18_146
*342 FILLER_0_18_162
*343 FILLER_0_18_170
*344 FILLER_0_18_174
*345 FILLER_0_18_183
*346 FILLER_0_18_191
*347 FILLER_0_18_195
*348 FILLER_0_18_2
*349 FILLER_0_18_202
*350 FILLER_0_18_210
*351 FILLER_0_18_214
*352 FILLER_0_18_247
*353 FILLER_0_18_251
*354 FILLER_0_18_317
*355 FILLER_0_18_321
*356 FILLER_0_18_34
*357 FILLER_0_18_37
*358 FILLER_0_19_104
*359 FILLER_0_19_124
*360 FILLER_0_19_126
*361 FILLER_0_19_137
*362 FILLER_0_19_139
*363 FILLER_0_19_150
*364 FILLER_0_19_172
*365 FILLER_0_19_187
*366 FILLER_0_19_195
*367 FILLER_0_19_2
*368 FILLER_0_19_202
*369 FILLER_0_19_206
*370 FILLER_0_19_212
*371 FILLER_0_19_214
*372 FILLER_0_19_252
*373 FILLER_0_19_268
*374 FILLER_0_19_276
*375 FILLER_0_19_282
*376 FILLER_0_19_346
*377 FILLER_0_19_348
*378 FILLER_0_19_66
*379 FILLER_0_19_72
*380 FILLER_0_1_136
*381 FILLER_0_1_142
*382 FILLER_0_1_150
*383 FILLER_0_1_154
*384 FILLER_0_1_156
*385 FILLER_0_1_183
*386 FILLER_0_1_199
*387 FILLER_0_1_2
*388 FILLER_0_1_207
*389 FILLER_0_1_209
*390 FILLER_0_1_238
*391 FILLER_0_1_270
*392 FILLER_0_1_278
*393 FILLER_0_1_282
*394 FILLER_0_1_346
*395 FILLER_0_1_348
*396 FILLER_0_1_66
*397 FILLER_0_1_72
*398 FILLER_0_20_107
*399 FILLER_0_20_111
*400 FILLER_0_20_155
*401 FILLER_0_20_163
*402 FILLER_0_20_170
*403 FILLER_0_20_174
*404 FILLER_0_20_183
*405 FILLER_0_20_187
*406 FILLER_0_20_196
*407 FILLER_0_20_240
*408 FILLER_0_20_244
*409 FILLER_0_20_247
*410 FILLER_0_20_28
*411 FILLER_0_20_311
*412 FILLER_0_20_317
*413 FILLER_0_20_32
*414 FILLER_0_20_321
*415 FILLER_0_20_34
*416 FILLER_0_20_37
*417 FILLER_0_20_69
*418 FILLER_0_20_73
*419 FILLER_0_20_75
*420 FILLER_0_21_104
*421 FILLER_0_21_112
*422 FILLER_0_21_124
*423 FILLER_0_21_142
*424 FILLER_0_21_146
*425 FILLER_0_21_2
*426 FILLER_0_21_202
*427 FILLER_0_21_220
*428 FILLER_0_21_224
*429 FILLER_0_21_236
*430 FILLER_0_21_268
*431 FILLER_0_21_276
*432 FILLER_0_21_282
*433 FILLER_0_21_314
*434 FILLER_0_21_322
*435 FILLER_0_21_66
*436 FILLER_0_21_72
*437 FILLER_0_22_101
*438 FILLER_0_22_107
*439 FILLER_0_22_109
*440 FILLER_0_22_173
*441 FILLER_0_22_177
*442 FILLER_0_22_2
*443 FILLER_0_22_247
*444 FILLER_0_22_251
*445 FILLER_0_22_258
*446 FILLER_0_22_290
*447 FILLER_0_22_306
*448 FILLER_0_22_314
*449 FILLER_0_22_317
*450 FILLER_0_22_321
*451 FILLER_0_22_34
*452 FILLER_0_22_37
*453 FILLER_0_23_110
*454 FILLER_0_23_138
*455 FILLER_0_23_142
*456 FILLER_0_23_144
*457 FILLER_0_23_2
*458 FILLER_0_23_207
*459 FILLER_0_23_209
*460 FILLER_0_23_217
*461 FILLER_0_23_225
*462 FILLER_0_23_263
*463 FILLER_0_23_279
*464 FILLER_0_23_282
*465 FILLER_0_23_314
*466 FILLER_0_23_322
*467 FILLER_0_23_66
*468 FILLER_0_23_72
*469 FILLER_0_23_80
*470 FILLER_0_24_104
*471 FILLER_0_24_107
*472 FILLER_0_24_111
*473 FILLER_0_24_127
*474 FILLER_0_24_131
*475 FILLER_0_24_141
*476 FILLER_0_24_145
*477 FILLER_0_24_149
*478 FILLER_0_24_173
*479 FILLER_0_24_2
*480 FILLER_0_24_200
*481 FILLER_0_24_216
*482 FILLER_0_24_220
*483 FILLER_0_24_222
*484 FILLER_0_24_239
*485 FILLER_0_24_243
*486 FILLER_0_24_247
*487 FILLER_0_24_311
*488 FILLER_0_24_317
*489 FILLER_0_24_321
*490 FILLER_0_24_34
*491 FILLER_0_24_37
*492 FILLER_0_24_69
*493 FILLER_0_24_73
*494 FILLER_0_25_142
*495 FILLER_0_25_151
*496 FILLER_0_25_166
*497 FILLER_0_25_174
*498 FILLER_0_25_176
*499 FILLER_0_25_183
*500 FILLER_0_25_199
*501 FILLER_0_25_207
*502 FILLER_0_25_209
*503 FILLER_0_25_212
*504 FILLER_0_25_220
*505 FILLER_0_25_250
*506 FILLER_0_25_254
*507 FILLER_0_25_270
*508 FILLER_0_25_278
*509 FILLER_0_25_28
*510 FILLER_0_25_282
*511 FILLER_0_25_314
*512 FILLER_0_25_322
*513 FILLER_0_25_60
*514 FILLER_0_25_68
*515 FILLER_0_25_72
*516 FILLER_0_25_88
*517 FILLER_0_25_96
*518 FILLER_0_25_98
*519 FILLER_0_26_101
*520 FILLER_0_26_107
*521 FILLER_0_26_123
*522 FILLER_0_26_131
*523 FILLER_0_26_134
*524 FILLER_0_26_167
*525 FILLER_0_26_183
*526 FILLER_0_26_204
*527 FILLER_0_26_208
*528 FILLER_0_26_212
*529 FILLER_0_26_244
*530 FILLER_0_26_247
*531 FILLER_0_26_28
*532 FILLER_0_26_311
*533 FILLER_0_26_317
*534 FILLER_0_26_32
*535 FILLER_0_26_321
*536 FILLER_0_26_34
*537 FILLER_0_26_37
*538 FILLER_0_27_118
*539 FILLER_0_27_122
*540 FILLER_0_27_138
*541 FILLER_0_27_142
*542 FILLER_0_27_168
*543 FILLER_0_27_172
*544 FILLER_0_27_180
*545 FILLER_0_27_2
*546 FILLER_0_27_218
*547 FILLER_0_27_250
*548 FILLER_0_27_266
*549 FILLER_0_27_274
*550 FILLER_0_27_278
*551 FILLER_0_27_282
*552 FILLER_0_27_314
*553 FILLER_0_27_322
*554 FILLER_0_27_66
*555 FILLER_0_27_72
*556 FILLER_0_27_88
*557 FILLER_0_28_101
*558 FILLER_0_28_107
*559 FILLER_0_28_115
*560 FILLER_0_28_131
*561 FILLER_0_28_135
*562 FILLER_0_28_167
*563 FILLER_0_28_177
*564 FILLER_0_28_185
*565 FILLER_0_28_199
*566 FILLER_0_28_2
*567 FILLER_0_28_230
*568 FILLER_0_28_234
*569 FILLER_0_28_242
*570 FILLER_0_28_244
*571 FILLER_0_28_247
*572 FILLER_0_28_311
*573 FILLER_0_28_317
*574 FILLER_0_28_321
*575 FILLER_0_28_34
*576 FILLER_0_28_37
*577 FILLER_0_29_131
*578 FILLER_0_29_135
*579 FILLER_0_29_139
*580 FILLER_0_29_155
*581 FILLER_0_29_192
*582 FILLER_0_29_196
*583 FILLER_0_29_204
*584 FILLER_0_29_208
*585 FILLER_0_29_212
*586 FILLER_0_29_220
*587 FILLER_0_29_230
*588 FILLER_0_29_262
*589 FILLER_0_29_278
*590 FILLER_0_29_28
*591 FILLER_0_29_282
*592 FILLER_0_29_314
*593 FILLER_0_29_322
*594 FILLER_0_29_60
*595 FILLER_0_29_68
*596 FILLER_0_29_72
*597 FILLER_0_29_88
*598 FILLER_0_2_101
*599 FILLER_0_2_107
*600 FILLER_0_2_171
*601 FILLER_0_2_177
*602 FILLER_0_2_2
*603 FILLER_0_2_241
*604 FILLER_0_2_247
*605 FILLER_0_2_311
*606 FILLER_0_2_317
*607 FILLER_0_2_34
*608 FILLER_0_2_37
*609 FILLER_0_30_101
*610 FILLER_0_30_107
*611 FILLER_0_30_115
*612 FILLER_0_30_123
*613 FILLER_0_30_160
*614 FILLER_0_30_164
*615 FILLER_0_30_177
*616 FILLER_0_30_199
*617 FILLER_0_30_231
*618 FILLER_0_30_239
*619 FILLER_0_30_243
*620 FILLER_0_30_247
*621 FILLER_0_30_28
*622 FILLER_0_30_311
*623 FILLER_0_30_317
*624 FILLER_0_30_32
*625 FILLER_0_30_333
*626 FILLER_0_30_34
*627 FILLER_0_30_341
*628 FILLER_0_30_37
*629 FILLER_0_31_136
*630 FILLER_0_31_171
*631 FILLER_0_31_175
*632 FILLER_0_31_2
*633 FILLER_0_31_206
*634 FILLER_0_31_212
*635 FILLER_0_31_276
*636 FILLER_0_31_282
*637 FILLER_0_31_346
*638 FILLER_0_31_348
*639 FILLER_0_31_66
*640 FILLER_0_31_72
*641 FILLER_0_32_101
*642 FILLER_0_32_107
*643 FILLER_0_32_139
*644 FILLER_0_32_147
*645 FILLER_0_32_151
*646 FILLER_0_32_153
*647 FILLER_0_32_160
*648 FILLER_0_32_168
*649 FILLER_0_32_172
*650 FILLER_0_32_174
*651 FILLER_0_32_177
*652 FILLER_0_32_2
*653 FILLER_0_32_241
*654 FILLER_0_32_247
*655 FILLER_0_32_311
*656 FILLER_0_32_317
*657 FILLER_0_32_34
*658 FILLER_0_32_37
*659 FILLER_0_33_136
*660 FILLER_0_33_142
*661 FILLER_0_33_2
*662 FILLER_0_33_206
*663 FILLER_0_33_212
*664 FILLER_0_33_276
*665 FILLER_0_33_282
*666 FILLER_0_33_346
*667 FILLER_0_33_348
*668 FILLER_0_33_66
*669 FILLER_0_33_72
*670 FILLER_0_34_101
*671 FILLER_0_34_107
*672 FILLER_0_34_171
*673 FILLER_0_34_177
*674 FILLER_0_34_2
*675 FILLER_0_34_241
*676 FILLER_0_34_247
*677 FILLER_0_34_311
*678 FILLER_0_34_317
*679 FILLER_0_34_34
*680 FILLER_0_34_37
*681 FILLER_0_35_136
*682 FILLER_0_35_142
*683 FILLER_0_35_2
*684 FILLER_0_35_206
*685 FILLER_0_35_212
*686 FILLER_0_35_276
*687 FILLER_0_35_282
*688 FILLER_0_35_346
*689 FILLER_0_35_348
*690 FILLER_0_35_66
*691 FILLER_0_35_72
*692 FILLER_0_36_101
*693 FILLER_0_36_107
*694 FILLER_0_36_171
*695 FILLER_0_36_177
*696 FILLER_0_36_2
*697 FILLER_0_36_241
*698 FILLER_0_36_247
*699 FILLER_0_36_311
*700 FILLER_0_36_317
*701 FILLER_0_36_34
*702 FILLER_0_36_37
*703 FILLER_0_37_136
*704 FILLER_0_37_142
*705 FILLER_0_37_2
*706 FILLER_0_37_206
*707 FILLER_0_37_212
*708 FILLER_0_37_276
*709 FILLER_0_37_282
*710 FILLER_0_37_346
*711 FILLER_0_37_348
*712 FILLER_0_37_66
*713 FILLER_0_37_72
*714 FILLER_0_38_101
*715 FILLER_0_38_107
*716 FILLER_0_38_171
*717 FILLER_0_38_177
*718 FILLER_0_38_2
*719 FILLER_0_38_241
*720 FILLER_0_38_247
*721 FILLER_0_38_311
*722 FILLER_0_38_317
*723 FILLER_0_38_34
*724 FILLER_0_38_37
*725 FILLER_0_39_136
*726 FILLER_0_39_142
*727 FILLER_0_39_2
*728 FILLER_0_39_206
*729 FILLER_0_39_212
*730 FILLER_0_39_276
*731 FILLER_0_39_282
*732 FILLER_0_39_346
*733 FILLER_0_39_348
*734 FILLER_0_39_66
*735 FILLER_0_39_72
*736 FILLER_0_3_136
*737 FILLER_0_3_142
*738 FILLER_0_3_2
*739 FILLER_0_3_206
*740 FILLER_0_3_212
*741 FILLER_0_3_276
*742 FILLER_0_3_282
*743 FILLER_0_3_346
*744 FILLER_0_3_348
*745 FILLER_0_3_66
*746 FILLER_0_3_72
*747 FILLER_0_40_101
*748 FILLER_0_40_107
*749 FILLER_0_40_171
*750 FILLER_0_40_177
*751 FILLER_0_40_2
*752 FILLER_0_40_241
*753 FILLER_0_40_247
*754 FILLER_0_40_311
*755 FILLER_0_40_317
*756 FILLER_0_40_34
*757 FILLER_0_40_37
*758 FILLER_0_41_136
*759 FILLER_0_41_142
*760 FILLER_0_41_2
*761 FILLER_0_41_206
*762 FILLER_0_41_212
*763 FILLER_0_41_276
*764 FILLER_0_41_282
*765 FILLER_0_41_346
*766 FILLER_0_41_348
*767 FILLER_0_41_66
*768 FILLER_0_41_72
*769 FILLER_0_42_101
*770 FILLER_0_42_107
*771 FILLER_0_42_171
*772 FILLER_0_42_177
*773 FILLER_0_42_2
*774 FILLER_0_42_241
*775 FILLER_0_42_247
*776 FILLER_0_42_311
*777 FILLER_0_42_317
*778 FILLER_0_42_34
*779 FILLER_0_42_37
*780 FILLER_0_43_136
*781 FILLER_0_43_142
*782 FILLER_0_43_158
*783 FILLER_0_43_162
*784 FILLER_0_43_189
*785 FILLER_0_43_2
*786 FILLER_0_43_205
*787 FILLER_0_43_209
*788 FILLER_0_43_212
*789 FILLER_0_43_276
*790 FILLER_0_43_282
*791 FILLER_0_43_346
*792 FILLER_0_43_348
*793 FILLER_0_43_66
*794 FILLER_0_43_72
*795 FILLER_0_44_104
*796 FILLER_0_44_138
*797 FILLER_0_44_142
*798 FILLER_0_44_172
*799 FILLER_0_44_176
*800 FILLER_0_44_2
*801 FILLER_0_44_232
*802 FILLER_0_44_236
*803 FILLER_0_44_240
*804 FILLER_0_44_274
*805 FILLER_0_44_308
*806 FILLER_0_44_342
*807 FILLER_0_44_346
*808 FILLER_0_44_348
*809 FILLER_0_44_36
*810 FILLER_0_44_70
*811 FILLER_0_4_101
*812 FILLER_0_4_107
*813 FILLER_0_4_171
*814 FILLER_0_4_177
*815 FILLER_0_4_2
*816 FILLER_0_4_241
*817 FILLER_0_4_247
*818 FILLER_0_4_311
*819 FILLER_0_4_317
*820 FILLER_0_4_34
*821 FILLER_0_4_37
*822 FILLER_0_5_136
*823 FILLER_0_5_142
*824 FILLER_0_5_2
*825 FILLER_0_5_206
*826 FILLER_0_5_212
*827 FILLER_0_5_276
*828 FILLER_0_5_282
*829 FILLER_0_5_346
*830 FILLER_0_5_348
*831 FILLER_0_5_66
*832 FILLER_0_5_72
*833 FILLER_0_6_101
*834 FILLER_0_6_107
*835 FILLER_0_6_171
*836 FILLER_0_6_177
*837 FILLER_0_6_2
*838 FILLER_0_6_241
*839 FILLER_0_6_247
*840 FILLER_0_6_311
*841 FILLER_0_6_317
*842 FILLER_0_6_34
*843 FILLER_0_6_37
*844 FILLER_0_7_136
*845 FILLER_0_7_142
*846 FILLER_0_7_2
*847 FILLER_0_7_206
*848 FILLER_0_7_212
*849 FILLER_0_7_276
*850 FILLER_0_7_282
*851 FILLER_0_7_346
*852 FILLER_0_7_348
*853 FILLER_0_7_66
*854 FILLER_0_7_72
*855 FILLER_0_8_101
*856 FILLER_0_8_107
*857 FILLER_0_8_171
*858 FILLER_0_8_177
*859 FILLER_0_8_2
*860 FILLER_0_8_241
*861 FILLER_0_8_247
*862 FILLER_0_8_311
*863 FILLER_0_8_317
*864 FILLER_0_8_34
*865 FILLER_0_8_37
*866 FILLER_0_9_136
*867 FILLER_0_9_142
*868 FILLER_0_9_2
*869 FILLER_0_9_206
*870 FILLER_0_9_212
*871 FILLER_0_9_276
*872 FILLER_0_9_282
*873 FILLER_0_9_346
*874 FILLER_0_9_348
*875 FILLER_0_9_66
*876 FILLER_0_9_72
*877 PHY_EDGE_ROW_0_Left_45
*878 PHY_EDGE_ROW_0_Right_0
*879 PHY_EDGE_ROW_10_Left_55
*880 PHY_EDGE_ROW_10_Right_10
*881 PHY_EDGE_ROW_11_Left_56
*882 PHY_EDGE_ROW_11_Right_11
*883 PHY_EDGE_ROW_12_Left_57
*884 PHY_EDGE_ROW_12_Right_12
*885 PHY_EDGE_ROW_13_Left_58
*886 PHY_EDGE_ROW_13_Right_13
*887 PHY_EDGE_ROW_14_Left_59
*888 PHY_EDGE_ROW_14_Right_14
*889 PHY_EDGE_ROW_15_Left_60
*890 PHY_EDGE_ROW_15_Right_15
*891 PHY_EDGE_ROW_16_Left_61
*892 PHY_EDGE_ROW_16_Right_16
*893 PHY_EDGE_ROW_17_Left_62
*894 PHY_EDGE_ROW_17_Right_17
*895 PHY_EDGE_ROW_18_Left_63
*896 PHY_EDGE_ROW_18_Right_18
*897 PHY_EDGE_ROW_19_Left_64
*898 PHY_EDGE_ROW_19_Right_19
*899 PHY_EDGE_ROW_1_Left_46
*900 PHY_EDGE_ROW_1_Right_1
*901 PHY_EDGE_ROW_20_Left_65
*902 PHY_EDGE_ROW_20_Right_20
*903 PHY_EDGE_ROW_21_Left_66
*904 PHY_EDGE_ROW_21_Right_21
*905 PHY_EDGE_ROW_22_Left_67
*906 PHY_EDGE_ROW_22_Right_22
*907 PHY_EDGE_ROW_23_Left_68
*908 PHY_EDGE_ROW_23_Right_23
*909 PHY_EDGE_ROW_24_Left_69
*910 PHY_EDGE_ROW_24_Right_24
*911 PHY_EDGE_ROW_25_Left_70
*912 PHY_EDGE_ROW_25_Right_25
*913 PHY_EDGE_ROW_26_Left_71
*914 PHY_EDGE_ROW_26_Right_26
*915 PHY_EDGE_ROW_27_Left_72
*916 PHY_EDGE_ROW_27_Right_27
*917 PHY_EDGE_ROW_28_Left_73
*918 PHY_EDGE_ROW_28_Right_28
*919 PHY_EDGE_ROW_29_Left_74
*920 PHY_EDGE_ROW_29_Right_29
*921 PHY_EDGE_ROW_2_Left_47
*922 PHY_EDGE_ROW_2_Right_2
*923 PHY_EDGE_ROW_30_Left_75
*924 PHY_EDGE_ROW_30_Right_30
*925 PHY_EDGE_ROW_31_Left_76
*926 PHY_EDGE_ROW_31_Right_31
*927 PHY_EDGE_ROW_32_Left_77
*928 PHY_EDGE_ROW_32_Right_32
*929 PHY_EDGE_ROW_33_Left_78
*930 PHY_EDGE_ROW_33_Right_33
*931 PHY_EDGE_ROW_34_Left_79
*932 PHY_EDGE_ROW_34_Right_34
*933 PHY_EDGE_ROW_35_Left_80
*934 PHY_EDGE_ROW_35_Right_35
*935 PHY_EDGE_ROW_36_Left_81
*936 PHY_EDGE_ROW_36_Right_36
*937 PHY_EDGE_ROW_37_Left_82
*938 PHY_EDGE_ROW_37_Right_37
*939 PHY_EDGE_ROW_38_Left_83
*940 PHY_EDGE_ROW_38_Right_38
*941 PHY_EDGE_ROW_39_Left_84
*942 PHY_EDGE_ROW_39_Right_39
*943 PHY_EDGE_ROW_3_Left_48
*944 PHY_EDGE_ROW_3_Right_3
*945 PHY_EDGE_ROW_40_Left_85
*946 PHY_EDGE_ROW_40_Right_40
*947 PHY_EDGE_ROW_41_Left_86
*948 PHY_EDGE_ROW_41_Right_41
*949 PHY_EDGE_ROW_42_Left_87
*950 PHY_EDGE_ROW_42_Right_42
*951 PHY_EDGE_ROW_43_Left_88
*952 PHY_EDGE_ROW_43_Right_43
*953 PHY_EDGE_ROW_44_Left_89
*954 PHY_EDGE_ROW_44_Right_44
*955 PHY_EDGE_ROW_4_Left_49
*956 PHY_EDGE_ROW_4_Right_4
*957 PHY_EDGE_ROW_5_Left_50
*958 PHY_EDGE_ROW_5_Right_5
*959 PHY_EDGE_ROW_6_Left_51
*960 PHY_EDGE_ROW_6_Right_6
*961 PHY_EDGE_ROW_7_Left_52
*962 PHY_EDGE_ROW_7_Right_7
*963 PHY_EDGE_ROW_8_Left_53
*964 PHY_EDGE_ROW_8_Right_8
*965 PHY_EDGE_ROW_9_Left_54
*966 PHY_EDGE_ROW_9_Right_9
*967 TAP_TAPCELL_ROW_0_90
*968 TAP_TAPCELL_ROW_0_91
*969 TAP_TAPCELL_ROW_0_92
*970 TAP_TAPCELL_ROW_0_93
*971 TAP_TAPCELL_ROW_0_94
*972 TAP_TAPCELL_ROW_0_95
*973 TAP_TAPCELL_ROW_0_96
*974 TAP_TAPCELL_ROW_0_97
*975 TAP_TAPCELL_ROW_0_98
*976 TAP_TAPCELL_ROW_0_99
*977 TAP_TAPCELL_ROW_10_140
*978 TAP_TAPCELL_ROW_10_141
*979 TAP_TAPCELL_ROW_10_142
*980 TAP_TAPCELL_ROW_10_143
*981 TAP_TAPCELL_ROW_10_144
*982 TAP_TAPCELL_ROW_11_145
*983 TAP_TAPCELL_ROW_11_146
*984 TAP_TAPCELL_ROW_11_147
*985 TAP_TAPCELL_ROW_11_148
*986 TAP_TAPCELL_ROW_12_149
*987 TAP_TAPCELL_ROW_12_150
*988 TAP_TAPCELL_ROW_12_151
*989 TAP_TAPCELL_ROW_12_152
*990 TAP_TAPCELL_ROW_12_153
*991 TAP_TAPCELL_ROW_13_154
*992 TAP_TAPCELL_ROW_13_155
*993 TAP_TAPCELL_ROW_13_156
*994 TAP_TAPCELL_ROW_13_157
*995 TAP_TAPCELL_ROW_14_158
*996 TAP_TAPCELL_ROW_14_159
*997 TAP_TAPCELL_ROW_14_160
*998 TAP_TAPCELL_ROW_14_161
*999 TAP_TAPCELL_ROW_14_162
*1000 TAP_TAPCELL_ROW_15_163
*1001 TAP_TAPCELL_ROW_15_164
*1002 TAP_TAPCELL_ROW_15_165
*1003 TAP_TAPCELL_ROW_15_166
*1004 TAP_TAPCELL_ROW_16_167
*1005 TAP_TAPCELL_ROW_16_168
*1006 TAP_TAPCELL_ROW_16_169
*1007 TAP_TAPCELL_ROW_16_170
*1008 TAP_TAPCELL_ROW_16_171
*1009 TAP_TAPCELL_ROW_17_172
*1010 TAP_TAPCELL_ROW_17_173
*1011 TAP_TAPCELL_ROW_17_174
*1012 TAP_TAPCELL_ROW_17_175
*1013 TAP_TAPCELL_ROW_18_176
*1014 TAP_TAPCELL_ROW_18_177
*1015 TAP_TAPCELL_ROW_18_178
*1016 TAP_TAPCELL_ROW_18_179
*1017 TAP_TAPCELL_ROW_18_180
*1018 TAP_TAPCELL_ROW_19_181
*1019 TAP_TAPCELL_ROW_19_182
*1020 TAP_TAPCELL_ROW_19_183
*1021 TAP_TAPCELL_ROW_19_184
*1022 TAP_TAPCELL_ROW_1_100
*1023 TAP_TAPCELL_ROW_1_101
*1024 TAP_TAPCELL_ROW_1_102
*1025 TAP_TAPCELL_ROW_1_103
*1026 TAP_TAPCELL_ROW_20_185
*1027 TAP_TAPCELL_ROW_20_186
*1028 TAP_TAPCELL_ROW_20_187
*1029 TAP_TAPCELL_ROW_20_188
*1030 TAP_TAPCELL_ROW_20_189
*1031 TAP_TAPCELL_ROW_21_190
*1032 TAP_TAPCELL_ROW_21_191
*1033 TAP_TAPCELL_ROW_21_192
*1034 TAP_TAPCELL_ROW_21_193
*1035 TAP_TAPCELL_ROW_22_194
*1036 TAP_TAPCELL_ROW_22_195
*1037 TAP_TAPCELL_ROW_22_196
*1038 TAP_TAPCELL_ROW_22_197
*1039 TAP_TAPCELL_ROW_22_198
*1040 TAP_TAPCELL_ROW_23_199
*1041 TAP_TAPCELL_ROW_23_200
*1042 TAP_TAPCELL_ROW_23_201
*1043 TAP_TAPCELL_ROW_23_202
*1044 TAP_TAPCELL_ROW_24_203
*1045 TAP_TAPCELL_ROW_24_204
*1046 TAP_TAPCELL_ROW_24_205
*1047 TAP_TAPCELL_ROW_24_206
*1048 TAP_TAPCELL_ROW_24_207
*1049 TAP_TAPCELL_ROW_25_208
*1050 TAP_TAPCELL_ROW_25_209
*1051 TAP_TAPCELL_ROW_25_210
*1052 TAP_TAPCELL_ROW_25_211
*1053 TAP_TAPCELL_ROW_26_212
*1054 TAP_TAPCELL_ROW_26_213
*1055 TAP_TAPCELL_ROW_26_214
*1056 TAP_TAPCELL_ROW_26_215
*1057 TAP_TAPCELL_ROW_26_216
*1058 TAP_TAPCELL_ROW_27_217
*1059 TAP_TAPCELL_ROW_27_218
*1060 TAP_TAPCELL_ROW_27_219
*1061 TAP_TAPCELL_ROW_27_220
*1062 TAP_TAPCELL_ROW_28_221
*1063 TAP_TAPCELL_ROW_28_222
*1064 TAP_TAPCELL_ROW_28_223
*1065 TAP_TAPCELL_ROW_28_224
*1066 TAP_TAPCELL_ROW_28_225
*1067 TAP_TAPCELL_ROW_29_226
*1068 TAP_TAPCELL_ROW_29_227
*1069 TAP_TAPCELL_ROW_29_228
*1070 TAP_TAPCELL_ROW_29_229
*1071 TAP_TAPCELL_ROW_2_104
*1072 TAP_TAPCELL_ROW_2_105
*1073 TAP_TAPCELL_ROW_2_106
*1074 TAP_TAPCELL_ROW_2_107
*1075 TAP_TAPCELL_ROW_2_108
*1076 TAP_TAPCELL_ROW_30_230
*1077 TAP_TAPCELL_ROW_30_231
*1078 TAP_TAPCELL_ROW_30_232
*1079 TAP_TAPCELL_ROW_30_233
*1080 TAP_TAPCELL_ROW_30_234
*1081 TAP_TAPCELL_ROW_31_235
*1082 TAP_TAPCELL_ROW_31_236
*1083 TAP_TAPCELL_ROW_31_237
*1084 TAP_TAPCELL_ROW_31_238
*1085 TAP_TAPCELL_ROW_32_239
*1086 TAP_TAPCELL_ROW_32_240
*1087 TAP_TAPCELL_ROW_32_241
*1088 TAP_TAPCELL_ROW_32_242
*1089 TAP_TAPCELL_ROW_32_243
*1090 TAP_TAPCELL_ROW_33_244
*1091 TAP_TAPCELL_ROW_33_245
*1092 TAP_TAPCELL_ROW_33_246
*1093 TAP_TAPCELL_ROW_33_247
*1094 TAP_TAPCELL_ROW_34_248
*1095 TAP_TAPCELL_ROW_34_249
*1096 TAP_TAPCELL_ROW_34_250
*1097 TAP_TAPCELL_ROW_34_251
*1098 TAP_TAPCELL_ROW_34_252
*1099 TAP_TAPCELL_ROW_35_253
*1100 TAP_TAPCELL_ROW_35_254
*1101 TAP_TAPCELL_ROW_35_255
*1102 TAP_TAPCELL_ROW_35_256
*1103 TAP_TAPCELL_ROW_36_257
*1104 TAP_TAPCELL_ROW_36_258
*1105 TAP_TAPCELL_ROW_36_259
*1106 TAP_TAPCELL_ROW_36_260
*1107 TAP_TAPCELL_ROW_36_261
*1108 TAP_TAPCELL_ROW_37_262
*1109 TAP_TAPCELL_ROW_37_263
*1110 TAP_TAPCELL_ROW_37_264
*1111 TAP_TAPCELL_ROW_37_265
*1112 TAP_TAPCELL_ROW_38_266
*1113 TAP_TAPCELL_ROW_38_267
*1114 TAP_TAPCELL_ROW_38_268
*1115 TAP_TAPCELL_ROW_38_269
*1116 TAP_TAPCELL_ROW_38_270
*1117 TAP_TAPCELL_ROW_39_271
*1118 TAP_TAPCELL_ROW_39_272
*1119 TAP_TAPCELL_ROW_39_273
*1120 TAP_TAPCELL_ROW_39_274
*1121 TAP_TAPCELL_ROW_3_109
*1122 TAP_TAPCELL_ROW_3_110
*1123 TAP_TAPCELL_ROW_3_111
*1124 TAP_TAPCELL_ROW_3_112
*1125 TAP_TAPCELL_ROW_40_275
*1126 TAP_TAPCELL_ROW_40_276
*1127 TAP_TAPCELL_ROW_40_277
*1128 TAP_TAPCELL_ROW_40_278
*1129 TAP_TAPCELL_ROW_40_279
*1130 TAP_TAPCELL_ROW_41_280
*1131 TAP_TAPCELL_ROW_41_281
*1132 TAP_TAPCELL_ROW_41_282
*1133 TAP_TAPCELL_ROW_41_283
*1134 TAP_TAPCELL_ROW_42_284
*1135 TAP_TAPCELL_ROW_42_285
*1136 TAP_TAPCELL_ROW_42_286
*1137 TAP_TAPCELL_ROW_42_287
*1138 TAP_TAPCELL_ROW_42_288
*1139 TAP_TAPCELL_ROW_43_289
*1140 TAP_TAPCELL_ROW_43_290
*1141 TAP_TAPCELL_ROW_43_291
*1142 TAP_TAPCELL_ROW_43_292
*1143 TAP_TAPCELL_ROW_44_293
*1144 TAP_TAPCELL_ROW_44_294
*1145 TAP_TAPCELL_ROW_44_295
*1146 TAP_TAPCELL_ROW_44_296
*1147 TAP_TAPCELL_ROW_44_297
*1148 TAP_TAPCELL_ROW_44_298
*1149 TAP_TAPCELL_ROW_44_299
*1150 TAP_TAPCELL_ROW_44_300
*1151 TAP_TAPCELL_ROW_44_301
*1152 TAP_TAPCELL_ROW_44_302
*1153 TAP_TAPCELL_ROW_4_113
*1154 TAP_TAPCELL_ROW_4_114
*1155 TAP_TAPCELL_ROW_4_115
*1156 TAP_TAPCELL_ROW_4_116
*1157 TAP_TAPCELL_ROW_4_117
*1158 TAP_TAPCELL_ROW_5_118
*1159 TAP_TAPCELL_ROW_5_119
*1160 TAP_TAPCELL_ROW_5_120
*1161 TAP_TAPCELL_ROW_5_121
*1162 TAP_TAPCELL_ROW_6_122
*1163 TAP_TAPCELL_ROW_6_123
*1164 TAP_TAPCELL_ROW_6_124
*1165 TAP_TAPCELL_ROW_6_125
*1166 TAP_TAPCELL_ROW_6_126
*1167 TAP_TAPCELL_ROW_7_127
*1168 TAP_TAPCELL_ROW_7_128
*1169 TAP_TAPCELL_ROW_7_129
*1170 TAP_TAPCELL_ROW_7_130
*1171 TAP_TAPCELL_ROW_8_131
*1172 TAP_TAPCELL_ROW_8_132
*1173 TAP_TAPCELL_ROW_8_133
*1174 TAP_TAPCELL_ROW_8_134
*1175 TAP_TAPCELL_ROW_8_135
*1176 TAP_TAPCELL_ROW_9_136
*1177 TAP_TAPCELL_ROW_9_137
*1178 TAP_TAPCELL_ROW_9_138
*1179 TAP_TAPCELL_ROW_9_139
*1180 _100_
*1181 _101_
*1182 _102_
*1183 _103_
*1184 _104_
*1185 _105_
*1186 _106_
*1187 _107_
*1188 _108_
*1189 _109_
*1190 _110_
*1191 _111_
*1192 _112_
*1193 _113_
*1194 _114_
*1195 _115_
*1196 _116_
*1197 _117_
*1198 _118_
*1199 _119_
*1200 _120_
*1201 _121_
*1202 _122_
*1203 _123_
*1204 _124_
*1205 _125_
*1206 _126_
*1207 _127_
*1208 _128_
*1209 _129_
*1210 _130_
*1211 _131_
*1212 _132_
*1213 _133_
*1214 _134_
*1215 _135_
*1216 _136_
*1217 _137_
*1218 _138_
*1219 _139_
*1220 _140_
*1221 _141_
*1222 _142_
*1223 _143_
*1224 _144_
*1225 _145_
*1226 _146_
*1227 _147_
*1228 _148_
*1229 _149_
*1230 _150_
*1231 _151_
*1232 _152_
*1233 _153_
*1234 _154_
*1235 _155_
*1236 _156_
*1237 _157_
*1238 _158_
*1239 _159_
*1240 _160_
*1241 _161_
*1242 _162_
*1243 _163_
*1244 _164_
*1245 _165_
*1246 _166_
*1247 _167_
*1248 _168_
*1249 _169_
*1250 _170_
*1251 _171_
*1252 _172_
*1253 _173_
*1254 _174_
*1255 _175_
*1256 _176_
*1257 _177_
*1258 _178_
*1259 _179_
*1260 _180_
*1261 _181_
*1262 _182_
*1263 _183_
*1264 _184_
*1265 _185_
*1266 _186_
*1267 _187_
*1268 _188_
*1269 _189_
*1270 _190_
*1271 _191_
*1272 _192_
*1273 _193_
*1274 _194_
*1275 _195_
*1276 _196_
*1277 _197_
*1278 _198_
*1279 _199_
*1280 _200_
*1281 _201_
*1282 _202_
*1283 _203_
*1284 _204_
*1285 _205_
*1286 _206_
*1287 _207_
*1288 _208_
*1289 _209_
*1290 _210_
*1291 _211_
*1292 _212_
*1293 _213_
*1294 _214_
*1295 _215_
*1296 _216_
*1297 _217_
*1298 _218_
*1299 _219_
*1300 _220_
*1301 _221_
*1302 _222_
*1303 _223_
*1304 _226_
*1305 _227_
*1306 _228_
*1307 _229_
*1308 clkbuf_0_clk
*1309 clkbuf_1_0__f_clk
*1310 clkbuf_1_1__f_clk
*1311 ita6_25
*1312 ita6_26
*1313 output1
*1314 output10
*1315 output11
*1316 output12
*1317 output13
*1318 output14
*1319 output15
*1320 output16
*1321 output17
*1322 output18
*1323 output19
*1324 output2
*1325 output20
*1326 output21
*1327 output22
*1328 output23
*1329 output24
*1330 output3
*1331 output4
*1332 output5
*1333 output6
*1334 output7
*1335 output8
*1336 output9

*PORTS
clk I
segm[0] O
segm[10] O
segm[11] O
segm[12] O
segm[13] O
segm[1] O
segm[2] O
segm[3] O
segm[4] O
segm[5] O
segm[6] O
segm[7] O
segm[8] O
segm[9] O
sel[0] O
sel[10] O
sel[11] O
sel[1] O
sel[2] O
sel[3] O
sel[4] O
sel[5] O
sel[6] O
sel[7] O
sel[8] O
sel[9] O

*D_NET *1 0.0172561
*CONN
*P clk I
*I *1308:I I *D gf180mcu_fd_sc_mcu7t5v0__clkbuf_16
*I *189:I I *D gf180mcu_fd_sc_mcu7t5v0__antenna
*CAP
1 clk 0.00221975
2 *1308:I 0.00020757
3 *189:I 0
4 *1:13 0.00223447
5 *1:11 0.00424665
6 *1308:I *1260:A2 9.98832e-05
7 *1308:I *74:12 0.000722716
8 *1308:I *91:10 0.000531148
9 *1308:I *91:23 0.000158227
10 *1308:I *116:12 4.01293e-05
11 *1308:I *116:38 2.81522e-06
12 *1:11 *1336:I 0.000122244
13 *1:13 *1224:A2 0.000317564
14 *1:13 *1228:A1 0.0024417
15 *1:13 *1271:I 0
16 *1:13 *1286:CLK 0.000442563
17 *1:13 *1314:I 0
18 *1:13 *74:12 0.00288495
19 *1:13 *91:10 0.000116476
20 *1:13 *110:33 9.63133e-05
21 *1:13 *131:135 0.000256614
22 *1:13 *131:161 0.000114359
*RES
1 clk *1:11 25.796 
2 *1:11 *1:13 26.104 
3 *1:13 *189:I 9 
4 *1:13 *1308:I 11.912 
*END

*D_NET *2 0.000817981
*CONN
*P segm[0] O
*I *1311:ZN O *D gf180mcu_fd_sc_mcu7t5v0__tiel
*CAP
1 segm[0] 0.000379385
2 *1311:ZN 0.000379385
3 segm[0] segm[8] 5.92105e-05
*RES
1 *1311:ZN segm[0] 12.068 
*END

*D_NET *3 0.000887729
*CONN
*P segm[10] O
*I *1313:Z O *D gf180mcu_fd_sc_mcu7t5v0__buf_8
*CAP
1 segm[10] 0.000443864
2 *1313:Z 0.000443864
*RES
1 *1313:Z segm[10] 12.276 
*END

*D_NET *4 0.00145108
*CONN
*P segm[11] O
*I *1324:Z O *D gf180mcu_fd_sc_mcu7t5v0__buf_8
*CAP
1 segm[11] 0.000725541
2 *1324:Z 0.000725541
*RES
1 *1324:Z segm[11] 10.376 
*END

*D_NET *5 0.00203081
*CONN
*P segm[12] O
*I *1330:Z O *D gf180mcu_fd_sc_mcu7t5v0__buf_8
*CAP
1 segm[12] 0.00101541
2 *1330:Z 0.00101541
*RES
1 *1330:Z segm[12] 21.768 
*END

*D_NET *6 0.00263139
*CONN
*P segm[13] O
*I *1331:Z O *D gf180mcu_fd_sc_mcu7t5v0__buf_8
*CAP
1 segm[13] 0.00126184
2 *1331:Z 0.00126184
3 segm[13] sel[8] 0.000107711
*RES
1 *1331:Z segm[13] 24.056 
*END

*D_NET *7 0.000838878
*CONN
*P segm[1] O
*I *1332:Z O *D gf180mcu_fd_sc_mcu7t5v0__buf_8
*CAP
1 segm[1] 0.000358783
2 *1332:Z 0.000358783
3 segm[1] segm[4] 6.0656e-05
4 segm[1] segm[9] 6.0656e-05
*RES
1 *1332:Z segm[1] 11.86 
*END

*D_NET *8 0.000704164
*CONN
*P segm[2] O
*I *1333:Z O *D gf180mcu_fd_sc_mcu7t5v0__buf_8
*CAP
1 segm[2] 0.000283088
2 *1333:Z 0.000283088
3 segm[2] sel[1] 6.8994e-05
4 segm[2] sel[7] 6.8994e-05
*RES
1 *1333:Z segm[2] 11.86 
*END

*D_NET *9 0.0012182
*CONN