*SPEF "ieee 1481-1999"
*DESIGN "ita8"
*DATE "11:11:11 Fri 11 11, 1111"
*VENDOR "OpenRCX"
*PROGRAM "Parallel Extraction"
*VERSION "1.0"
*DESIGN_FLOW "NAME_SCOPE LOCAL" "PIN_CAP NONE"
*DIVIDER /
*DELIMITER :
*BUS_DELIMITER []
*T_UNIT 1 NS
*C_UNIT 1 PF
*R_UNIT 1 OHM
*L_UNIT 1 HENRY

*NAME_MAP
*1 clk
*2 segm[0]
*3 segm[10]
*4 segm[11]
*5 segm[12]
*6 segm[13]
*7 segm[1]
*8 segm[2]
*9 segm[3]
*10 segm[4]
*11 segm[5]
*12 segm[6]
*13 segm[7]
*14 segm[8]
*15 segm[9]
*16 sel[0]
*17 sel[10]
*18 sel[11]
*19 sel[1]
*20 sel[2]
*21 sel[3]
*22 sel[4]
*23 sel[5]
*24 sel[6]
*25 sel[7]
*26 sel[8]
*27 sel[9]
*30 _000_
*31 _001_
*32 _002_
*33 _003_
*34 _004_
*35 _005_
*36 _006_
*37 _007_
*38 _008_
*39 _009_
*40 _010_
*41 _011_
*42 _012_
*43 _013_
*44 _014_
*45 _015_
*46 _016_
*47 _017_
*48 _018_
*49 _019_
*50 _020_
*51 _021_
*52 _022_
*53 _023_
*54 _024_
*55 _025_
*56 _026_
*57 _027_
*58 _028_
*59 _029_
*60 _030_
*61 _031_
*62 _032_
*63 _033_
*64 _034_
*65 _035_
*66 _036_
*67 _037_
*68 _038_
*69 _039_
*70 _040_
*71 _041_
*72 _042_
*73 _043_
*74 _044_
*75 _045_
*76 _046_
*77 _047_
*78 _048_
*79 _049_
*80 _050_
*81 _051_
*82 _052_
*83 _053_
*84 _054_
*85 _055_
*86 _056_
*87 _057_
*88 _058_
*89 _059_
*90 _060_
*91 _061_
*92 _062_
*93 _063_
*94 _064_
*95 _065_
*96 _066_
*97 _067_
*98 _068_
*99 _069_
*100 _070_
*101 _071_
*102 _072_
*103 _073_
*104 _074_
*105 _075_
*106 _076_
*107 _077_
*108 _078_
*109 _079_
*110 _080_
*111 _081_
*112 _082_
*113 _083_
*114 _084_
*115 _085_
*116 _086_
*117 _087_
*118 _088_
*119 _089_
*120 _090_
*121 _091_
*122 _092_
*123 _093_
*124 _094_
*125 _095_
*126 _096_
*127 _097_
*128 _098_
*129 _099_
*130 _100_
*131 _101_
*132 _102_
*133 _103_
*134 _104_
*135 _105_
*136 _106_
*137 _107_
*138 _108_
*139 _109_
*140 _110_
*141 _111_
*142 clknet_0_clk
*143 clknet_1_0__leaf_clk
*144 clknet_1_1__leaf_clk
*145 dut8\.count\[0\]
*146 dut8\.count\[1\]
*147 dut8\.count\[2\]
*148 dut8\.count\[3\]
*149 net1
*150 net10
*151 net11
*152 net12
*153 net13
*154 net14
*155 net15
*156 net16
*157 net17
*158 net18
*159 net19
*160 net2
*161 net20
*162 net21
*163 net22
*164 net23
*165 net24
*166 net25
*167 net26
*168 net3
*169 net4
*170 net5
*171 net6
*172 net7
*173 net8
*174 net9
*175 ANTENNA__224__CLK
*176 ANTENNA__225__CLK
*177 ANTENNA__226__CLK
*178 ANTENNA__227__CLK
*179 ANTENNA__228__CLK
*180 ANTENNA__229__CLK
*181 ANTENNA__230__CLK
*182 ANTENNA__231__CLK
*183 ANTENNA__232__CLK
*184 ANTENNA__233__CLK
*185 ANTENNA__234__CLK
*186 ANTENNA__235__CLK
*187 ANTENNA__236__CLK
*188 ANTENNA__237__CLK
*189 ANTENNA__238__CLK
*190 ANTENNA__239__CLK
*191 ANTENNA__240__CLK
*192 ANTENNA__241__CLK
*193 ANTENNA__242__CLK
*194 ANTENNA__243__CLK
*195 ANTENNA__244__CLK
*196 ANTENNA__245__CLK
*197 ANTENNA__246__CLK
*198 ANTENNA__247__CLK
*199 ANTENNA__248__CLK
*200 ANTENNA__249__CLK
*201 ANTENNA__250__CLK
*202 ANTENNA_clkbuf_0_clk_I
*203 FILLER_0_0_104
*204 FILLER_0_0_138
*205 FILLER_0_0_172
*206 FILLER_0_0_2
*207 FILLER_0_0_232
*208 FILLER_0_0_236
*209 FILLER_0_0_240
*210 FILLER_0_0_274
*211 FILLER_0_0_308
*212 FILLER_0_0_342
*213 FILLER_0_0_346
*214 FILLER_0_0_348
*215 FILLER_0_0_36
*216 FILLER_0_0_70
*217 FILLER_0_10_101
*218 FILLER_0_10_107
*219 FILLER_0_10_171
*220 FILLER_0_10_177
*221 FILLER_0_10_2
*222 FILLER_0_10_241
*223 FILLER_0_10_247
*224 FILLER_0_10_311
*225 FILLER_0_10_317
*226 FILLER_0_10_34
*227 FILLER_0_10_37
*228 FILLER_0_11_136
*229 FILLER_0_11_142
*230 FILLER_0_11_2
*231 FILLER_0_11_206
*232 FILLER_0_11_212
*233 FILLER_0_11_276
*234 FILLER_0_11_282
*235 FILLER_0_11_346
*236 FILLER_0_11_348
*237 FILLER_0_11_66
*238 FILLER_0_11_72
*239 FILLER_0_12_101
*240 FILLER_0_12_107
*241 FILLER_0_12_171
*242 FILLER_0_12_177
*243 FILLER_0_12_2
*244 FILLER_0_12_241
*245 FILLER_0_12_247
*246 FILLER_0_12_311
*247 FILLER_0_12_317
*248 FILLER_0_12_34
*249 FILLER_0_12_37
*250 FILLER_0_13_136
*251 FILLER_0_13_142
*252 FILLER_0_13_144
*253 FILLER_0_13_147
*254 FILLER_0_13_179
*255 FILLER_0_13_195
*256 FILLER_0_13_2
*257 FILLER_0_13_203
*258 FILLER_0_13_207
*259 FILLER_0_13_209
*260 FILLER_0_13_212
*261 FILLER_0_13_276
*262 FILLER_0_13_282
*263 FILLER_0_13_346
*264 FILLER_0_13_348
*265 FILLER_0_13_66
*266 FILLER_0_13_72
*267 FILLER_0_14_101
*268 FILLER_0_14_107
*269 FILLER_0_14_115
*270 FILLER_0_14_174
*271 FILLER_0_14_177
*272 FILLER_0_14_181
*273 FILLER_0_14_2
*274 FILLER_0_14_214
*275 FILLER_0_14_218
*276 FILLER_0_14_234
*277 FILLER_0_14_242
*278 FILLER_0_14_244
*279 FILLER_0_14_247
*280 FILLER_0_14_311
*281 FILLER_0_14_317
*282 FILLER_0_14_34
*283 FILLER_0_14_37
*284 FILLER_0_15_122
*285 FILLER_0_15_126
*286 FILLER_0_15_131
*287 FILLER_0_15_139
*288 FILLER_0_15_142
*289 FILLER_0_15_163
*290 FILLER_0_15_171
*291 FILLER_0_15_180
*292 FILLER_0_15_188
*293 FILLER_0_15_2
*294 FILLER_0_15_202
*295 FILLER_0_15_207
*296 FILLER_0_15_209
*297 FILLER_0_15_241
*298 FILLER_0_15_245
*299 FILLER_0_15_277
*300 FILLER_0_15_279
*301 FILLER_0_15_282
*302 FILLER_0_15_346
*303 FILLER_0_15_348
*304 FILLER_0_15_66
*305 FILLER_0_15_72
*306 FILLER_0_15_88
*307 FILLER_0_15_92
*308 FILLER_0_16_101
*309 FILLER_0_16_107
*310 FILLER_0_16_111
*311 FILLER_0_16_113
*312 FILLER_0_16_128
*313 FILLER_0_16_144
*314 FILLER_0_16_148
*315 FILLER_0_16_150
*316 FILLER_0_16_167
*317 FILLER_0_16_177
*318 FILLER_0_16_185
*319 FILLER_0_16_2
*320 FILLER_0_16_218
*321 FILLER_0_16_222
*322 FILLER_0_16_238
*323 FILLER_0_16_244
*324 FILLER_0_16_252
*325 FILLER_0_16_260
*326 FILLER_0_16_292
*327 FILLER_0_16_308
*328 FILLER_0_16_312
*329 FILLER_0_16_314
*330 FILLER_0_16_317
*331 FILLER_0_16_321
*332 FILLER_0_16_34
*333 FILLER_0_16_37
*334 FILLER_0_17_130
*335 FILLER_0_17_134
*336 FILLER_0_17_138
*337 FILLER_0_17_142
*338 FILLER_0_17_150
*339 FILLER_0_17_152
*340 FILLER_0_17_167
*341 FILLER_0_17_171
*342 FILLER_0_17_178
*343 FILLER_0_17_180
*344 FILLER_0_17_193
*345 FILLER_0_17_201
*346 FILLER_0_17_209
*347 FILLER_0_17_212
*348 FILLER_0_17_216
*349 FILLER_0_17_222
*350 FILLER_0_17_230
*351 FILLER_0_17_263
*352 FILLER_0_17_267
*353 FILLER_0_17_275
*354 FILLER_0_17_279
*355 FILLER_0_17_28
*356 FILLER_0_17_282
*357 FILLER_0_17_314
*358 FILLER_0_17_322
*359 FILLER_0_17_60
*360 FILLER_0_17_68
*361 FILLER_0_17_72
*362 FILLER_0_17_88
*363 FILLER_0_17_92
*364 FILLER_0_18_101
*365 FILLER_0_18_107
*366 FILLER_0_18_115
*367 FILLER_0_18_122
*368 FILLER_0_18_138
*369 FILLER_0_18_151
*370 FILLER_0_18_185
*371 FILLER_0_18_201
*372 FILLER_0_18_209
*373 FILLER_0_18_221
*374 FILLER_0_18_237
*375 FILLER_0_18_241
*376 FILLER_0_18_260
*377 FILLER_0_18_28
*378 FILLER_0_18_292
*379 FILLER_0_18_308
*380 FILLER_0_18_312
*381 FILLER_0_18_314
*382 FILLER_0_18_317
*383 FILLER_0_18_32
*384 FILLER_0_18_321
*385 FILLER_0_18_34
*386 FILLER_0_18_37
*387 FILLER_0_19_107
*388 FILLER_0_19_111
*389 FILLER_0_19_119
*390 FILLER_0_19_123
*391 FILLER_0_19_131
*392 FILLER_0_19_139
*393 FILLER_0_19_142
*394 FILLER_0_19_150
*395 FILLER_0_19_160
*396 FILLER_0_19_2
*397 FILLER_0_19_201
*398 FILLER_0_19_212
*399 FILLER_0_19_235
*400 FILLER_0_19_237
*401 FILLER_0_19_267
*402 FILLER_0_19_271
*403 FILLER_0_19_279
*404 FILLER_0_19_282
*405 FILLER_0_19_314
*406 FILLER_0_19_322
*407 FILLER_0_19_66
*408 FILLER_0_19_72
*409 FILLER_0_1_136
*410 FILLER_0_1_142
*411 FILLER_0_1_2
*412 FILLER_0_1_206
*413 FILLER_0_1_212
*414 FILLER_0_1_276
*415 FILLER_0_1_282
*416 FILLER_0_1_346
*417 FILLER_0_1_348
*418 FILLER_0_1_66
*419 FILLER_0_1_72
*420 FILLER_0_20_102
*421 FILLER_0_20_104
*422 FILLER_0_20_118
*423 FILLER_0_20_134
*424 FILLER_0_20_138
*425 FILLER_0_20_140
*426 FILLER_0_20_168
*427 FILLER_0_20_172
*428 FILLER_0_20_190
*429 FILLER_0_20_200
*430 FILLER_0_20_223
*431 FILLER_0_20_225
*432 FILLER_0_20_276
*433 FILLER_0_20_28
*434 FILLER_0_20_308
*435 FILLER_0_20_312
*436 FILLER_0_20_314
*437 FILLER_0_20_317
*438 FILLER_0_20_32
*439 FILLER_0_20_34
*440 FILLER_0_20_37
*441 FILLER_0_20_69
*442 FILLER_0_21_112
*443 FILLER_0_21_128
*444 FILLER_0_21_136
*445 FILLER_0_21_148
*446 FILLER_0_21_175
*447 FILLER_0_21_203
*448 FILLER_0_21_207
*449 FILLER_0_21_209
*450 FILLER_0_21_266
*451 FILLER_0_21_274
*452 FILLER_0_21_278
*453 FILLER_0_21_28
*454 FILLER_0_21_282
*455 FILLER_0_21_346
*456 FILLER_0_21_348
*457 FILLER_0_21_60
*458 FILLER_0_21_68
*459 FILLER_0_21_72
*460 FILLER_0_21_88
*461 FILLER_0_21_93
*462 FILLER_0_22_103
*463 FILLER_0_22_107
*464 FILLER_0_22_115
*465 FILLER_0_22_119
*466 FILLER_0_22_121
*467 FILLER_0_22_151
*468 FILLER_0_22_174
*469 FILLER_0_22_243
*470 FILLER_0_22_256
*471 FILLER_0_22_28
*472 FILLER_0_22_288
*473 FILLER_0_22_304
*474 FILLER_0_22_312
*475 FILLER_0_22_314
*476 FILLER_0_22_317
*477 FILLER_0_22_32
*478 FILLER_0_22_321
*479 FILLER_0_22_34
*480 FILLER_0_22_37
*481 FILLER_0_22_69
*482 FILLER_0_22_85
*483 FILLER_0_22_89
*484 FILLER_0_22_95
*485 FILLER_0_23_113
*486 FILLER_0_23_117
*487 FILLER_0_23_121
*488 FILLER_0_23_128
*489 FILLER_0_23_136
*490 FILLER_0_23_192
*491 FILLER_0_23_198
*492 FILLER_0_23_2
*493 FILLER_0_23_206
*494 FILLER_0_23_212
*495 FILLER_0_23_243
*496 FILLER_0_23_247
*497 FILLER_0_23_279
*498 FILLER_0_23_282
*499 FILLER_0_23_346
*500 FILLER_0_23_348
*501 FILLER_0_23_66
*502 FILLER_0_23_72
*503 FILLER_0_23_74
*504 FILLER_0_24_101
*505 FILLER_0_24_107
*506 FILLER_0_24_123
*507 FILLER_0_24_127
*508 FILLER_0_24_161
*509 FILLER_0_24_163
*510 FILLER_0_24_172
*511 FILLER_0_24_174
*512 FILLER_0_24_222
*513 FILLER_0_24_230
*514 FILLER_0_24_234
*515 FILLER_0_24_236
*516 FILLER_0_24_257
*517 FILLER_0_24_28
*518 FILLER_0_24_289
*519 FILLER_0_24_305
*520 FILLER_0_24_313
*521 FILLER_0_24_317
*522 FILLER_0_24_32
*523 FILLER_0_24_321
*524 FILLER_0_24_34
*525 FILLER_0_24_37
*526 FILLER_0_25_100
*527 FILLER_0_25_138
*528 FILLER_0_25_193
*529 FILLER_0_25_197
*530 FILLER_0_25_207
*531 FILLER_0_25_209
*532 FILLER_0_25_212
*533 FILLER_0_25_228
*534 FILLER_0_25_236
*535 FILLER_0_25_272
*536 FILLER_0_25_276
*537 FILLER_0_25_28
*538 FILLER_0_25_282
*539 FILLER_0_25_314
*540 FILLER_0_25_322
*541 FILLER_0_25_60
*542 FILLER_0_25_68
*543 FILLER_0_25_72
*544 FILLER_0_25_88
*545 FILLER_0_25_96
*546 FILLER_0_26_112
*547 FILLER_0_26_116
*548 FILLER_0_26_124
*549 FILLER_0_26_128
*550 FILLER_0_26_134
*551 FILLER_0_26_140
*552 FILLER_0_26_147
*553 FILLER_0_26_155
*554 FILLER_0_26_177
*555 FILLER_0_26_188
*556 FILLER_0_26_192
*557 FILLER_0_26_222
*558 FILLER_0_26_226
*559 FILLER_0_26_242
*560 FILLER_0_26_244
*561 FILLER_0_26_247
*562 FILLER_0_26_28
*563 FILLER_0_26_311
*564 FILLER_0_26_317
*565 FILLER_0_26_32
*566 FILLER_0_26_321
*567 FILLER_0_26_34
*568 FILLER_0_26_37
*569 FILLER_0_26_69
*570 FILLER_0_26_73
*571 FILLER_0_26_75
*572 FILLER_0_27_124
*573 FILLER_0_27_128
*574 FILLER_0_27_136
*575 FILLER_0_27_142
*576 FILLER_0_27_158
*577 FILLER_0_27_2
*578 FILLER_0_27_206
*579 FILLER_0_27_212
*580 FILLER_0_27_220
*581 FILLER_0_27_224
*582 FILLER_0_27_254
*583 FILLER_0_27_258
*584 FILLER_0_27_274
*585 FILLER_0_27_278
*586 FILLER_0_27_282
*587 FILLER_0_27_346
*588 FILLER_0_27_348
*589 FILLER_0_27_66
*590 FILLER_0_27_72
*591 FILLER_0_27_88
*592 FILLER_0_27_92
*593 FILLER_0_27_94
*594 FILLER_0_28_101
*595 FILLER_0_28_107
*596 FILLER_0_28_136
*597 FILLER_0_28_140
*598 FILLER_0_28_148
*599 FILLER_0_28_159
*600 FILLER_0_28_167
*601 FILLER_0_28_169
*602 FILLER_0_28_177
*603 FILLER_0_28_185
*604 FILLER_0_28_187
*605 FILLER_0_28_190
*606 FILLER_0_28_2
*607 FILLER_0_28_222
*608 FILLER_0_28_226
*609 FILLER_0_28_233
*610 FILLER_0_28_244
*611 FILLER_0_28_252
*612 FILLER_0_28_284
*613 FILLER_0_28_300
*614 FILLER_0_28_308
*615 FILLER_0_28_312
*616 FILLER_0_28_314
*617 FILLER_0_28_317
*618 FILLER_0_28_34
*619 FILLER_0_28_37
*620 FILLER_0_29_104
*621 FILLER_0_29_137
*622 FILLER_0_29_139
*623 FILLER_0_29_142
*624 FILLER_0_29_144
*625 FILLER_0_29_159
*626 FILLER_0_29_194
*627 FILLER_0_29_201
*628 FILLER_0_29_209
*629 FILLER_0_29_212
*630 FILLER_0_29_216
*631 FILLER_0_29_218
*632 FILLER_0_29_248
*633 FILLER_0_29_252
*634 FILLER_0_29_268
*635 FILLER_0_29_276
*636 FILLER_0_29_28
*637 FILLER_0_29_282
*638 FILLER_0_29_314
*639 FILLER_0_29_322
*640 FILLER_0_29_60
*641 FILLER_0_29_68
*642 FILLER_0_29_72
*643 FILLER_0_2_101
*644 FILLER_0_2_107
*645 FILLER_0_2_171
*646 FILLER_0_2_177
*647 FILLER_0_2_2
*648 FILLER_0_2_241
*649 FILLER_0_2_247
*650 FILLER_0_2_311
*651 FILLER_0_2_317
*652 FILLER_0_2_34
*653 FILLER_0_2_37
*654 FILLER_0_30_101
*655 FILLER_0_30_107
*656 FILLER_0_30_123
*657 FILLER_0_30_127
*658 FILLER_0_30_163
*659 FILLER_0_30_167
*660 FILLER_0_30_177
*661 FILLER_0_30_179
*662 FILLER_0_30_2
*663 FILLER_0_30_209
*664 FILLER_0_30_213
*665 FILLER_0_30_247
*666 FILLER_0_30_311
*667 FILLER_0_30_317
*668 FILLER_0_30_321
*669 FILLER_0_30_34
*670 FILLER_0_30_37
*671 FILLER_0_31_136
*672 FILLER_0_31_142
*673 FILLER_0_31_150
*674 FILLER_0_31_152
*675 FILLER_0_31_159
*676 FILLER_0_31_175
*677 FILLER_0_31_183
*678 FILLER_0_31_185
*679 FILLER_0_31_196
*680 FILLER_0_31_2
*681 FILLER_0_31_204
*682 FILLER_0_31_208
*683 FILLER_0_31_212
*684 FILLER_0_31_276
*685 FILLER_0_31_282
*686 FILLER_0_31_346
*687 FILLER_0_31_348
*688 FILLER_0_31_66
*689 FILLER_0_31_72
*690 FILLER_0_32_101
*691 FILLER_0_32_107
*692 FILLER_0_32_171
*693 FILLER_0_32_177
*694 FILLER_0_32_2
*695 FILLER_0_32_241
*696 FILLER_0_32_247
*697 FILLER_0_32_311
*698 FILLER_0_32_317
*699 FILLER_0_32_34
*700 FILLER_0_32_37
*701 FILLER_0_33_136
*702 FILLER_0_33_142
*703 FILLER_0_33_2
*704 FILLER_0_33_206
*705 FILLER_0_33_212
*706 FILLER_0_33_276
*707 FILLER_0_33_282
*708 FILLER_0_33_346
*709 FILLER_0_33_348
*710 FILLER_0_33_66
*711 FILLER_0_33_72
*712 FILLER_0_34_101
*713 FILLER_0_34_107
*714 FILLER_0_34_171
*715 FILLER_0_34_177
*716 FILLER_0_34_2
*717 FILLER_0_34_241
*718 FILLER_0_34_247
*719 FILLER_0_34_311
*720 FILLER_0_34_317
*721 FILLER_0_34_34
*722 FILLER_0_34_37
*723 FILLER_0_35_136
*724 FILLER_0_35_142
*725 FILLER_0_35_2
*726 FILLER_0_35_206
*727 FILLER_0_35_212
*728 FILLER_0_35_276
*729 FILLER_0_35_282
*730 FILLER_0_35_346
*731 FILLER_0_35_348
*732 FILLER_0_35_66
*733 FILLER_0_35_72
*734 FILLER_0_36_101
*735 FILLER_0_36_107
*736 FILLER_0_36_171
*737 FILLER_0_36_177
*738 FILLER_0_36_2
*739 FILLER_0_36_241
*740 FILLER_0_36_247
*741 FILLER_0_36_311
*742 FILLER_0_36_317
*743 FILLER_0_36_34
*744 FILLER_0_36_37
*745 FILLER_0_37_136
*746 FILLER_0_37_142
*747 FILLER_0_37_2
*748 FILLER_0_37_206
*749 FILLER_0_37_212
*750 FILLER_0_37_276
*751 FILLER_0_37_282
*752 FILLER_0_37_346
*753 FILLER_0_37_348
*754 FILLER_0_37_66
*755 FILLER_0_37_72
*756 FILLER_0_38_101
*757 FILLER_0_38_107
*758 FILLER_0_38_171
*759 FILLER_0_38_177
*760 FILLER_0_38_2
*761 FILLER_0_38_241
*762 FILLER_0_38_247
*763 FILLER_0_38_311
*764 FILLER_0_38_317
*765 FILLER_0_38_34
*766 FILLER_0_38_37
*767 FILLER_0_39_136
*768 FILLER_0_39_142
*769 FILLER_0_39_2
*770 FILLER_0_39_206
*771 FILLER_0_39_212
*772 FILLER_0_39_276
*773 FILLER_0_39_282
*774 FILLER_0_39_346
*775 FILLER_0_39_348
*776 FILLER_0_39_66
*777 FILLER_0_39_72
*778 FILLER_0_3_136
*779 FILLER_0_3_142
*780 FILLER_0_3_2
*781 FILLER_0_3_206
*782 FILLER_0_3_212
*783 FILLER_0_3_276
*784 FILLER_0_3_282
*785 FILLER_0_3_346
*786 FILLER_0_3_348
*787 FILLER_0_3_66
*788 FILLER_0_3_72
*789 FILLER_0_40_101
*790 FILLER_0_40_107
*791 FILLER_0_40_171
*792 FILLER_0_40_177
*793 FILLER_0_40_2
*794 FILLER_0_40_241
*795 FILLER_0_40_247
*796 FILLER_0_40_311
*797 FILLER_0_40_317
*798 FILLER_0_40_34
*799 FILLER_0_40_37
*800 FILLER_0_41_136
*801 FILLER_0_41_142
*802 FILLER_0_41_2
*803 FILLER_0_41_206
*804 FILLER_0_41_212
*805 FILLER_0_41_276
*806 FILLER_0_41_282
*807 FILLER_0_41_346
*808 FILLER_0_41_348
*809 FILLER_0_41_66
*810 FILLER_0_41_72
*811 FILLER_0_42_101
*812 FILLER_0_42_107
*813 FILLER_0_42_123
*814 FILLER_0_42_131
*815 FILLER_0_42_159
*816 FILLER_0_42_177
*817 FILLER_0_42_2
*818 FILLER_0_42_241
*819 FILLER_0_42_247
*820 FILLER_0_42_311
*821 FILLER_0_42_317
*822 FILLER_0_42_34
*823 FILLER_0_42_37
*824 FILLER_0_43_136
*825 FILLER_0_43_142
*826 FILLER_0_43_158
*827 FILLER_0_43_162
*828 FILLER_0_43_189
*829 FILLER_0_43_2
*830 FILLER_0_43_205
*831 FILLER_0_43_209
*832 FILLER_0_43_238
*833 FILLER_0_43_270
*834 FILLER_0_43_278
*835 FILLER_0_43_282
*836 FILLER_0_43_346
*837 FILLER_0_43_348
*838 FILLER_0_43_66
*839 FILLER_0_43_72
*840 FILLER_0_44_104
*841 FILLER_0_44_138
*842 FILLER_0_44_142
*843 FILLER_0_44_172
*844 FILLER_0_44_176
*845 FILLER_0_44_2
*846 FILLER_0_44_232
*847 FILLER_0_44_236
*848 FILLER_0_44_240
*849 FILLER_0_44_274
*850 FILLER_0_44_308
*851 FILLER_0_44_342
*852 FILLER_0_44_346
*853 FILLER_0_44_348
*854 FILLER_0_44_36
*855 FILLER_0_44_70
*856 FILLER_0_4_101
*857 FILLER_0_4_107
*858 FILLER_0_4_171
*859 FILLER_0_4_177
*860 FILLER_0_4_2
*861 FILLER_0_4_241
*862 FILLER_0_4_247
*863 FILLER_0_4_311
*864 FILLER_0_4_317
*865 FILLER_0_4_34
*866 FILLER_0_4_37
*867 FILLER_0_5_136
*868 FILLER_0_5_142
*869 FILLER_0_5_2
*870 FILLER_0_5_206
*871 FILLER_0_5_212
*872 FILLER_0_5_276
*873 FILLER_0_5_282
*874 FILLER_0_5_346
*875 FILLER_0_5_348
*876 FILLER_0_5_66
*877 FILLER_0_5_72
*878 FILLER_0_6_101
*879 FILLER_0_6_107
*880 FILLER_0_6_171
*881 FILLER_0_6_177
*882 FILLER_0_6_2
*883 FILLER_0_6_241
*884 FILLER_0_6_247
*885 FILLER_0_6_311
*886 FILLER_0_6_317
*887 FILLER_0_6_34
*888 FILLER_0_6_37
*889 FILLER_0_7_136
*890 FILLER_0_7_142
*891 FILLER_0_7_2
*892 FILLER_0_7_206
*893 FILLER_0_7_212
*894 FILLER_0_7_276
*895 FILLER_0_7_282
*896 FILLER_0_7_346
*897 FILLER_0_7_348
*898 FILLER_0_7_66
*899 FILLER_0_7_72
*900 FILLER_0_8_101
*901 FILLER_0_8_107
*902 FILLER_0_8_171
*903 FILLER_0_8_177
*904 FILLER_0_8_2
*905 FILLER_0_8_241
*906 FILLER_0_8_247
*907 FILLER_0_8_311
*908 FILLER_0_8_317
*909 FILLER_0_8_34
*910 FILLER_0_8_37
*911 FILLER_0_9_136
*912 FILLER_0_9_142
*913 FILLER_0_9_2
*914 FILLER_0_9_206
*915 FILLER_0_9_212
*916 FILLER_0_9_276
*917 FILLER_0_9_282
*918 FILLER_0_9_346
*919 FILLER_0_9_348
*920 FILLER_0_9_66
*921 FILLER_0_9_72
*922 PHY_EDGE_ROW_0_Left_45
*923 PHY_EDGE_ROW_0_Right_0
*924 PHY_EDGE_ROW_10_Left_55
*925 PHY_EDGE_ROW_10_Right_10
*926 PHY_EDGE_ROW_11_Left_56
*927 PHY_EDGE_ROW_11_Right_11
*928 PHY_EDGE_ROW_12_Left_57
*929 PHY_EDGE_ROW_12_Right_12
*930 PHY_EDGE_ROW_13_Left_58
*931 PHY_EDGE_ROW_13_Right_13
*932 PHY_EDGE_ROW_14_Left_59
*933 PHY_EDGE_ROW_14_Right_14
*934 PHY_EDGE_ROW_15_Left_60
*935 PHY_EDGE_ROW_15_Right_15
*936 PHY_EDGE_ROW_16_Left_61
*937 PHY_EDGE_ROW_16_Right_16
*938 PHY_EDGE_ROW_17_Left_62
*939 PHY_EDGE_ROW_17_Right_17
*940 PHY_EDGE_ROW_18_Left_63
*941 PHY_EDGE_ROW_18_Right_18
*942 PHY_EDGE_ROW_19_Left_64
*943 PHY_EDGE_ROW_19_Right_19
*944 PHY_EDGE_ROW_1_Left_46
*945 PHY_EDGE_ROW_1_Right_1
*946 PHY_EDGE_ROW_20_Left_65
*947 PHY_EDGE_ROW_20_Right_20
*948 PHY_EDGE_ROW_21_Left_66
*949 PHY_EDGE_ROW_21_Right_21
*950 PHY_EDGE_ROW_22_Left_67
*951 PHY_EDGE_ROW_22_Right_22
*952 PHY_EDGE_ROW_23_Left_68
*953 PHY_EDGE_ROW_23_Right_23
*954 PHY_EDGE_ROW_24_Left_69
*955 PHY_EDGE_ROW_24_Right_24
*956 PHY_EDGE_ROW_25_Left_70
*957 PHY_EDGE_ROW_25_Right_25
*958 PHY_EDGE_ROW_26_Left_71
*959 PHY_EDGE_ROW_26_Right_26
*960 PHY_EDGE_ROW_27_Left_72
*961 PHY_EDGE_ROW_27_Right_27
*962 PHY_EDGE_ROW_28_Left_73
*963 PHY_EDGE_ROW_28_Right_28
*964 PHY_EDGE_ROW_29_Left_74
*965 PHY_EDGE_ROW_29_Right_29
*966 PHY_EDGE_ROW_2_Left_47
*967 PHY_EDGE_ROW_2_Right_2
*968 PHY_EDGE_ROW_30_Left_75
*969 PHY_EDGE_ROW_30_Right_30
*970 PHY_EDGE_ROW_31_Left_76
*971 PHY_EDGE_ROW_31_Right_31
*972 PHY_EDGE_ROW_32_Left_77
*973 PHY_EDGE_ROW_32_Right_32
*974 PHY_EDGE_ROW_33_Left_78
*975 PHY_EDGE_ROW_33_Right_33
*976 PHY_EDGE_ROW_34_Left_79
*977 PHY_EDGE_ROW_34_Right_34
*978 PHY_EDGE_ROW_35_Left_80
*979 PHY_EDGE_ROW_35_Right_35
*980 PHY_EDGE_ROW_36_Left_81
*981 PHY_EDGE_ROW_36_Right_36
*982 PHY_EDGE_ROW_37_Left_82
*983 PHY_EDGE_ROW_37_Right_37
*984 PHY_EDGE_ROW_38_Left_83
*985 PHY_EDGE_ROW_38_Right_38
*986 PHY_EDGE_ROW_39_Left_84
*987 PHY_EDGE_ROW_39_Right_39
*988 PHY_EDGE_ROW_3_Left_48
*989 PHY_EDGE_ROW_3_Right_3
*990 PHY_EDGE_ROW_40_Left_85
*991 PHY_EDGE_ROW_40_Right_40
*992 PHY_EDGE_ROW_41_Left_86
*993 PHY_EDGE_ROW_41_Right_41
*994 PHY_EDGE_ROW_42_Left_87
*995 PHY_EDGE_ROW_42_Right_42
*996 PHY_EDGE_ROW_43_Left_88
*997 PHY_EDGE_ROW_43_Right_43
*998 PHY_EDGE_ROW_44_Left_89
*999 PHY_EDGE_ROW_44_Right_44
*1000 PHY_EDGE_ROW_4_Left_49
*1001 PHY_EDGE_ROW_4_Right_4
*1002 PHY_EDGE_ROW_5_Left_50
*1003 PHY_EDGE_ROW_5_Right_5
*1004 PHY_EDGE_ROW_6_Left_51
*1005 PHY_EDGE_ROW_6_Right_6
*1006 PHY_EDGE_ROW_7_Left_52
*1007 PHY_EDGE_ROW_7_Right_7
*1008 PHY_EDGE_ROW_8_Left_53
*1009 PHY_EDGE_ROW_8_Right_8
*1010 PHY_EDGE_ROW_9_Left_54
*1011 PHY_EDGE_ROW_9_Right_9
*1012 TAP_TAPCELL_ROW_0_90
*1013 TAP_TAPCELL_ROW_0_91
*1014 TAP_TAPCELL_ROW_0_92
*1015 TAP_TAPCELL_ROW_0_93
*1016 TAP_TAPCELL_ROW_0_94
*1017 TAP_TAPCELL_ROW_0_95
*1018 TAP_TAPCELL_ROW_0_96
*1019 TAP_TAPCELL_ROW_0_97
*1020 TAP_TAPCELL_ROW_0_98
*1021 TAP_TAPCELL_ROW_0_99
*1022 TAP_TAPCELL_ROW_10_140
*1023 TAP_TAPCELL_ROW_10_141
*1024 TAP_TAPCELL_ROW_10_142
*1025 TAP_TAPCELL_ROW_10_143
*1026 TAP_TAPCELL_ROW_10_144
*1027 TAP_TAPCELL_ROW_11_145
*1028 TAP_TAPCELL_ROW_11_146
*1029 TAP_TAPCELL_ROW_11_147
*1030 TAP_TAPCELL_ROW_11_148
*1031 TAP_TAPCELL_ROW_12_149
*1032 TAP_TAPCELL_ROW_12_150
*1033 TAP_TAPCELL_ROW_12_151
*1034 TAP_TAPCELL_ROW_12_152
*1035 TAP_TAPCELL_ROW_12_153
*1036 TAP_TAPCELL_ROW_13_154
*1037 TAP_TAPCELL_ROW_13_155
*1038 TAP_TAPCELL_ROW_13_156
*1039 TAP_TAPCELL_ROW_13_157
*1040 TAP_TAPCELL_ROW_14_158
*1041 TAP_TAPCELL_ROW_14_159
*1042 TAP_TAPCELL_ROW_14_160
*1043 TAP_TAPCELL_ROW_14_161
*1044 TAP_TAPCELL_ROW_14_162
*1045 TAP_TAPCELL_ROW_15_163
*1046 TAP_TAPCELL_ROW_15_164
*1047 TAP_TAPCELL_ROW_15_165
*1048 TAP_TAPCELL_ROW_15_166
*1049 TAP_TAPCELL_ROW_16_167
*1050 TAP_TAPCELL_ROW_16_168
*1051 TAP_TAPCELL_ROW_16_169
*1052 TAP_TAPCELL_ROW_16_170
*1053 TAP_TAPCELL_ROW_16_171
*1054 TAP_TAPCELL_ROW_17_172
*1055 TAP_TAPCELL_ROW_17_173
*1056 TAP_TAPCELL_ROW_17_174
*1057 TAP_TAPCELL_ROW_17_175
*1058 TAP_TAPCELL_ROW_18_176
*1059 TAP_TAPCELL_ROW_18_177
*1060 TAP_TAPCELL_ROW_18_178
*1061 TAP_TAPCELL_ROW_18_179
*1062 TAP_TAPCELL_ROW_18_180
*1063 TAP_TAPCELL_ROW_19_181
*1064 TAP_TAPCELL_ROW_19_182
*1065 TAP_TAPCELL_ROW_19_183
*1066 TAP_TAPCELL_ROW_19_184
*1067 TAP_TAPCELL_ROW_1_100
*1068 TAP_TAPCELL_ROW_1_101
*1069 TAP_TAPCELL_ROW_1_102
*1070 TAP_TAPCELL_ROW_1_103
*1071 TAP_TAPCELL_ROW_20_185
*1072 TAP_TAPCELL_ROW_20_186
*1073 TAP_TAPCELL_ROW_20_187
*1074 TAP_TAPCELL_ROW_20_188
*1075 TAP_TAPCELL_ROW_20_189
*1076 TAP_TAPCELL_ROW_21_190
*1077 TAP_TAPCELL_ROW_21_191
*1078 TAP_TAPCELL_ROW_21_192
*1079 TAP_TAPCELL_ROW_21_193
*1080 TAP_TAPCELL_ROW_22_194
*1081 TAP_TAPCELL_ROW_22_195
*1082 TAP_TAPCELL_ROW_22_196
*1083 TAP_TAPCELL_ROW_22_197
*1084 TAP_TAPCELL_ROW_22_198
*1085 TAP_TAPCELL_ROW_23_199
*1086 TAP_TAPCELL_ROW_23_200
*1087 TAP_TAPCELL_ROW_23_201
*1088 TAP_TAPCELL_ROW_23_202
*1089 TAP_TAPCELL_ROW_24_203
*1090 TAP_TAPCELL_ROW_24_204
*1091 TAP_TAPCELL_ROW_24_205
*1092 TAP_TAPCELL_ROW_24_206
*1093 TAP_TAPCELL_ROW_24_207
*1094 TAP_TAPCELL_ROW_25_208
*1095 TAP_TAPCELL_ROW_25_209
*1096 TAP_TAPCELL_ROW_25_210
*1097 TAP_TAPCELL_ROW_25_211
*1098 TAP_TAPCELL_ROW_26_212
*1099 TAP_TAPCELL_ROW_26_213
*1100 TAP_TAPCELL_ROW_26_214
*1101 TAP_TAPCELL_ROW_26_215
*1102 TAP_TAPCELL_ROW_26_216
*1103 TAP_TAPCELL_ROW_27_217
*1104 TAP_TAPCELL_ROW_27_218
*1105 TAP_TAPCELL_ROW_27_219
*1106 TAP_TAPCELL_ROW_27_220
*1107 TAP_TAPCELL_ROW_28_221
*1108 TAP_TAPCELL_ROW_28_222
*1109 TAP_TAPCELL_ROW_28_223
*1110 TAP_TAPCELL_ROW_28_224
*1111 TAP_TAPCELL_ROW_28_225
*1112 TAP_TAPCELL_ROW_29_226
*1113 TAP_TAPCELL_ROW_29_227
*1114 TAP_TAPCELL_ROW_29_228
*1115 TAP_TAPCELL_ROW_29_229
*1116 TAP_TAPCELL_ROW_2_104
*1117 TAP_TAPCELL_ROW_2_105
*1118 TAP_TAPCELL_ROW_2_106
*1119 TAP_TAPCELL_ROW_2_107
*1120 TAP_TAPCELL_ROW_2_108
*1121 TAP_TAPCELL_ROW_30_230
*1122 TAP_TAPCELL_ROW_30_231
*1123 TAP_TAPCELL_ROW_30_232
*1124 TAP_TAPCELL_ROW_30_233
*1125 TAP_TAPCELL_ROW_30_234
*1126 TAP_TAPCELL_ROW_31_235
*1127 TAP_TAPCELL_ROW_31_236
*1128 TAP_TAPCELL_ROW_31_237
*1129 TAP_TAPCELL_ROW_31_238
*1130 TAP_TAPCELL_ROW_32_239
*1131 TAP_TAPCELL_ROW_32_240
*1132 TAP_TAPCELL_ROW_32_241
*1133 TAP_TAPCELL_ROW_32_242
*1134 TAP_TAPCELL_ROW_32_243
*1135 TAP_TAPCELL_ROW_33_244
*1136 TAP_TAPCELL_ROW_33_245
*1137 TAP_TAPCELL_ROW_33_246
*1138 TAP_TAPCELL_ROW_33_247
*1139 TAP_TAPCELL_ROW_34_248
*1140 TAP_TAPCELL_ROW_34_249
*1141 TAP_TAPCELL_ROW_34_250
*1142 TAP_TAPCELL_ROW_34_251
*1143 TAP_TAPCELL_ROW_34_252
*1144 TAP_TAPCELL_ROW_35_253
*1145 TAP_TAPCELL_ROW_35_254
*1146 TAP_TAPCELL_ROW_35_255
*1147 TAP_TAPCELL_ROW_35_256
*1148 TAP_TAPCELL_ROW_36_257
*1149 TAP_TAPCELL_ROW_36_258
*1150 TAP_TAPCELL_ROW_36_259
*1151 TAP_TAPCELL_ROW_36_260
*1152 TAP_TAPCELL_ROW_36_261
*1153 TAP_TAPCELL_ROW_37_262
*1154 TAP_TAPCELL_ROW_37_263
*1155 TAP_TAPCELL_ROW_37_264
*1156 TAP_TAPCELL_ROW_37_265
*1157 TAP_TAPCELL_ROW_38_266
*1158 TAP_TAPCELL_ROW_38_267
*1159 TAP_TAPCELL_ROW_38_268
*1160 TAP_TAPCELL_ROW_38_269
*1161 TAP_TAPCELL_ROW_38_270
*1162 TAP_TAPCELL_ROW_39_271
*1163 TAP_TAPCELL_ROW_39_272
*1164 TAP_TAPCELL_ROW_39_273
*1165 TAP_TAPCELL_ROW_39_274
*1166 TAP_TAPCELL_ROW_3_109
*1167 TAP_TAPCELL_ROW_3_110
*1168 TAP_TAPCELL_ROW_3_111
*1169 TAP_TAPCELL_ROW_3_112
*1170 TAP_TAPCELL_ROW_40_275
*1171 TAP_TAPCELL_ROW_40_276
*1172 TAP_TAPCELL_ROW_40_277
*1173 TAP_TAPCELL_ROW_40_278
*1174 TAP_TAPCELL_ROW_40_279
*1175 TAP_TAPCELL_ROW_41_280
*1176 TAP_TAPCELL_ROW_41_281
*1177 TAP_TAPCELL_ROW_41_282
*1178 TAP_TAPCELL_ROW_41_283
*1179 TAP_TAPCELL_ROW_42_284
*1180 TAP_TAPCELL_ROW_42_285
*1181 TAP_TAPCELL_ROW_42_286
*1182 TAP_TAPCELL_ROW_42_287
*1183 TAP_TAPCELL_ROW_42_288
*1184 TAP_TAPCELL_ROW_43_289
*1185 TAP_TAPCELL_ROW_43_290
*1186 TAP_TAPCELL_ROW_43_291
*1187 TAP_TAPCELL_ROW_43_292
*1188 TAP_TAPCELL_ROW_44_293
*1189 TAP_TAPCELL_ROW_44_294
*1190 TAP_TAPCELL_ROW_44_295
*1191 TAP_TAPCELL_ROW_44_296
*1192 TAP_TAPCELL_ROW_44_297
*1193 TAP_TAPCELL_ROW_44_298
*1194 TAP_TAPCELL_ROW_44_299
*1195 TAP_TAPCELL_ROW_44_300
*1196 TAP_TAPCELL_ROW_44_301
*1197 TAP_TAPCELL_ROW_44_302
*1198 TAP_TAPCELL_ROW_4_113
*1199 TAP_TAPCELL_ROW_4_114
*1200 TAP_TAPCELL_ROW_4_115
*1201 TAP_TAPCELL_ROW_4_116
*1202 TAP_TAPCELL_ROW_4_117
*1203 TAP_TAPCELL_ROW_5_118
*1204 TAP_TAPCELL_ROW_5_119
*1205 TAP_TAPCELL_ROW_5_120
*1206 TAP_TAPCELL_ROW_5_121
*1207 TAP_TAPCELL_ROW_6_122
*1208 TAP_TAPCELL_ROW_6_123
*1209 TAP_TAPCELL_ROW_6_124
*1210 TAP_TAPCELL_ROW_6_125
*1211 TAP_TAPCELL_ROW_6_126
*1212 TAP_TAPCELL_ROW_7_127
*1213 TAP_TAPCELL_ROW_7_128
*1214 TAP_TAPCELL_ROW_7_129
*1215 TAP_TAPCELL_ROW_7_130
*1216 TAP_TAPCELL_ROW_8_131
*1217 TAP_TAPCELL_ROW_8_132
*1218 TAP_TAPCELL_ROW_8_133
*1219 TAP_TAPCELL_ROW_8_134
*1220 TAP_TAPCELL_ROW_8_135
*1221 TAP_TAPCELL_ROW_9_136
*1222 TAP_TAPCELL_ROW_9_137
*1223 TAP_TAPCELL_ROW_9_138
*1224 TAP_TAPCELL_ROW_9_139
*1225 _112_
*1226 _113_
*1227 _114_
*1228 _115_
*1229 _116_
*1230 _117_
*1231 _118_
*1232 _119_
*1233 _120_
*1234 _121_
*1235 _122_
*1236 _123_
*1237 _124_
*1238 _125_
*1239 _126_
*1240 _127_
*1241 _128_
*1242 _129_
*1243 _130_
*1244 _131_
*1245 _132_
*1246 _133_
*1247 _134_
*1248 _135_
*1249 _136_
*1250 _137_
*1251 _138_
*1252 _139_
*1253 _140_
*1254 _141_
*1255 _142_
*1256 _143_
*1257 _144_
*1258 _145_
*1259 _146_
*1260 _147_
*1261 _148_
*1262 _149_
*1263 _150_
*1264 _151_
*1265 _152_
*1266 _153_
*1267 _154_
*1268 _155_
*1269 _156_
*1270 _157_
*1271 _158_
*1272 _159_
*1273 _160_
*1274 _161_
*1275 _162_
*1276 _163_
*1277 _164_
*1278 _165_
*1279 _166_
*1280 _167_
*1281 _168_
*1282 _169_
*1283 _170_
*1284 _171_
*1285 _172_
*1286 _173_
*1287 _174_
*1288 _175_
*1289 _176_
*1290 _177_
*1291 _178_
*1292 _179_
*1293 _180_
*1294 _181_
*1295 _182_
*1296 _183_
*1297 _184_
*1298 _185_
*1299 _186_
*1300 _187_
*1301 _188_
*1302 _189_
*1303 _190_
*1304 _191_
*1305 _192_
*1306 _193_
*1307 _194_
*1308 _195_
*1309 _196_
*1310 _197_
*1311 _198_
*1312 _199_
*1313 _200_
*1314 _201_
*1315 _202_
*1316 _203_
*1317 _204_
*1318 _205_
*1319 _206_
*1320 _207_
*1321 _208_
*1322 _209_
*1323 _210_
*1324 _211_
*1325 _212_
*1326 _213_
*1327 _214_
*1328 _215_
*1329 _216_
*1330 _217_
*1331 _218_
*1332 _219_
*1333 _220_
*1334 _221_
*1335 _222_
*1336 _223_
*1337 _224_
*1338 _225_
*1339 _226_
*1340 _227_
*1341 _228_
*1342 _229_
*1343 _230_
*1344 _231_
*1345 _232_
*1346 _233_
*1347 _234_
*1348 _235_
*1349 _236_
*1350 _237_
*1351 _238_
*1352 _239_
*1353 _240_
*1354 _241_
*1355 _242_
*1356 _243_
*1357 _244_
*1358 _245_
*1359 _246_
*1360 _247_
*1361 _248_
*1362 _249_
*1363 _250_
*1364 _251_
*1365 _252_
*1366 _253_
*1367 clkbuf_0_clk
*1368 clkbuf_1_0__f_clk
*1369 clkbuf_1_1__f_clk
*1370 output1
*1371 output10
*1372 output11
*1373 output12
*1374 output13
*1375 output14
*1376 output15
*1377 output16
*1378 output17
*1379 output18
*1380 output19
*1381 output2
*1382 output20
*1383 output21
*1384 output22
*1385 output23
*1386 output24
*1387 output25
*1388 output26
*1389 output3
*1390 output4
*1391 output5
*1392 output6
*1393 output7
*1394 output8
*1395 output9

*PORTS
clk I
segm[0] O
segm[10] O
segm[11] O
segm[12] O
segm[13] O
segm[1] O
segm[2] O
segm[3] O
segm[4] O
segm[5] O
segm[6] O
segm[7] O
segm[8] O
segm[9] O
sel[0] O
sel[10] O
sel[11] O
sel[1] O
sel[2] O
sel[3] O
sel[4] O
sel[5] O
sel[6] O
sel[7] O
sel[8] O
sel[9] O

*D_NET *1 0.014106
*CONN
*P clk I
*I *1367:I I *D gf180mcu_fd_sc_mcu7t5v0__clkbuf_16
*I *202:I I *D gf180mcu_fd_sc_mcu7t5v0__antenna
*CAP
1 clk 0.00278152
2 *1367:I 8.93401e-05
3 *202:I 0.000382921
4 *1:17 0.00287646
5 *1:15 0.00518571
6 *202:I *1245:A3 0.000216769
7 *202:I *52:40 2.01575e-05
8 *202:I *118:21 0
9 *202:I *130:10 2.30981e-05
10 *1367:I *108:31 0
11 *1367:I *118:27 0
12 *1367:I *123:21 2.37543e-05
13 *1:15 *1378:I 0.00116901
14 *1:15 *1389:I 0.000106536
15 *1:15 *1392:I 0
16 *1:17 *1253:A1 0
17 *1:17 *1253:B1 0
18 *1:17 *1254:I 0
19 *1:17 *1270:A1 0
20 *1:17 *1286:A1 0
21 *1:17 *1286:A2 6.66578e-05
22 *1:17 *1311:B2 0
23 *1:17 *1312:I 0.000101906
24 *1:17 *1356:CLK 0
25 *1:17 *1378:I 0
26 *1:17 *1392:I 0.000222341
27 *1:17 *106:31 0
28 *1:17 *108:31 0
29 *1:17 *123:21 1.20833e-05
30 *1:17 *124:21 0
31 *1:17 *125:12 0.000570113
32 *1:17 *130:24 0.000217998
33 *1:17 *131:8 0
34 *1:17 *143:10 3.96522e-05
*RES
1 clk *1:15 31.545 
2 *1:15 *1:17 20.16 
3 *1:17 *202:I 11.43 
4 *1:17 *1367:I 9.81 
*END

*D_NET *2 0.000941763
*CONN
*P segm[0] O
*I *1370:Z O *D gf180mcu_fd_sc_mcu7t5v0__buf_8
*CAP
1 segm[0] 0.000422495
2 *1370:Z 0.000422495
3 segm[0] segm[3] 9.67726e-05
*RES