*SPEF "ieee 1481-1999"
*DESIGN "ita9"
*DATE "11:11:11 Fri 11 11, 1111"
*VENDOR "OpenRCX"
*PROGRAM "Parallel Extraction"
*VERSION "1.0"
*DESIGN_FLOW "NAME_SCOPE LOCAL" "PIN_CAP NONE"
*DIVIDER /
*DELIMITER :
*BUS_DELIMITER []
*T_UNIT 1 NS
*C_UNIT 1 PF
*R_UNIT 1 OHM
*L_UNIT 1 HENRY

*NAME_MAP
*1 clk
*2 segm[0]
*3 segm[10]
*4 segm[11]
*5 segm[12]
*6 net26
*7 segm[1]
*8 segm[2]
*9 segm[3]
*10 segm[4]
*11 net25
*12 segm[6]
*13 segm[7]
*14 segm[8]
*15 segm[9]
*16 sel[0]
*17 sel[10]
*18 sel[11]
*19 sel[1]
*20 sel[2]
*21 sel[3]
*22 sel[4]
*23 sel[5]
*24 sel[6]
*25 sel[7]
*26 sel[8]
*27 sel[9]
*30 _000_
*31 _001_
*32 _002_
*33 _003_
*34 _004_
*35 _005_
*36 _006_
*37 _007_
*38 _008_
*39 _009_
*40 _010_
*41 _011_
*42 _012_
*43 _013_
*44 _014_
*45 _015_
*46 _016_
*47 _017_
*48 _018_
*49 _019_
*50 _020_
*51 _021_
*52 _022_
*53 _023_
*54 _024_
*55 _025_
*56 _026_
*57 _027_
*58 _028_
*59 _029_
*60 _030_
*61 _031_
*62 _032_
*63 _033_
*64 _034_
*65 _035_
*66 _036_
*67 _037_
*68 _038_
*69 _039_
*70 _040_
*71 _041_
*72 _042_
*73 _043_
*74 _044_
*75 _045_
*76 _046_
*77 _047_
*78 _048_
*79 _049_
*80 _050_
*81 _051_
*82 _052_
*83 _053_
*84 _054_
*85 _055_
*86 _056_
*87 _057_
*88 _058_
*89 _059_
*90 _060_
*91 _061_
*92 _062_
*93 _063_
*94 _064_
*95 _065_
*96 _066_
*97 _067_
*98 _068_
*99 _069_
*100 _070_
*101 _071_
*102 _072_
*103 _073_
*104 _074_
*105 _075_
*106 _076_
*107 _077_
*108 _078_
*109 _079_
*110 _080_
*111 _081_
*112 _082_
*113 _083_
*114 _084_
*115 _085_
*116 _086_
*117 _087_
*118 _088_
*119 _089_
*120 _090_
*121 _091_
*122 _092_
*123 _093_
*124 _094_
*125 _095_
*126 _096_
*127 _097_
*128 _098_
*129 clknet_0_clk
*130 clknet_1_0__leaf_clk
*131 clknet_1_1__leaf_clk
*132 dut9\.count\[0\]
*133 dut9\.count\[1\]
*134 dut9\.count\[2\]
*135 dut9\.count\[3\]
*136 net1
*137 net10
*138 net11
*139 net12
*140 net13
*141 net14
*142 net15
*143 net16
*144 net17
*145 net18
*146 net19
*147 net2
*148 net20
*149 net21
*150 net22
*151 net23
*152 net24
*153 net3
*154 net4
*155 net5
*156 net6
*157 net7
*158 net8
*159 net9
*160 ANTENNA__198__CLK
*161 ANTENNA__199__CLK
*162 ANTENNA__200__CLK
*163 ANTENNA__201__CLK
*164 ANTENNA__202__CLK
*165 ANTENNA__203__CLK
*166 ANTENNA__204__CLK
*167 ANTENNA__205__CLK
*168 ANTENNA__206__CLK
*169 ANTENNA__207__CLK
*170 ANTENNA__208__CLK
*171 ANTENNA__209__CLK
*172 ANTENNA__210__CLK
*173 ANTENNA__211__CLK
*174 ANTENNA__212__CLK
*175 ANTENNA__213__CLK
*176 ANTENNA__214__CLK
*177 ANTENNA__215__CLK
*178 ANTENNA__216__CLK
*179 ANTENNA__217__CLK
*180 ANTENNA__218__CLK
*181 ANTENNA__219__CLK
*182 ANTENNA__220__CLK
*183 ANTENNA__221__CLK
*184 ANTENNA__222__CLK
*185 ANTENNA_clkbuf_0_clk_I
*186 FILLER_0_0_104
*187 FILLER_0_0_138
*188 FILLER_0_0_142
*189 FILLER_0_0_172
*190 FILLER_0_0_176
*191 FILLER_0_0_2
*192 FILLER_0_0_232
*193 FILLER_0_0_236
*194 FILLER_0_0_240
*195 FILLER_0_0_274
*196 FILLER_0_0_308
*197 FILLER_0_0_342
*198 FILLER_0_0_346
*199 FILLER_0_0_348
*200 FILLER_0_0_36
*201 FILLER_0_0_70
*202 FILLER_0_10_101
*203 FILLER_0_10_107
*204 FILLER_0_10_171
*205 FILLER_0_10_177
*206 FILLER_0_10_2
*207 FILLER_0_10_241
*208 FILLER_0_10_247
*209 FILLER_0_10_311
*210 FILLER_0_10_317
*211 FILLER_0_10_34
*212 FILLER_0_10_37
*213 FILLER_0_11_136
*214 FILLER_0_11_142
*215 FILLER_0_11_2
*216 FILLER_0_11_206
*217 FILLER_0_11_212
*218 FILLER_0_11_276
*219 FILLER_0_11_282
*220 FILLER_0_11_346
*221 FILLER_0_11_348
*222 FILLER_0_11_66
*223 FILLER_0_11_72
*224 FILLER_0_12_101
*225 FILLER_0_12_107
*226 FILLER_0_12_171
*227 FILLER_0_12_177
*228 FILLER_0_12_2
*229 FILLER_0_12_241
*230 FILLER_0_12_247
*231 FILLER_0_12_311
*232 FILLER_0_12_317
*233 FILLER_0_12_34
*234 FILLER_0_12_37
*235 FILLER_0_13_136
*236 FILLER_0_13_142
*237 FILLER_0_13_158
*238 FILLER_0_13_188
*239 FILLER_0_13_192
*240 FILLER_0_13_2
*241 FILLER_0_13_208
*242 FILLER_0_13_212
*243 FILLER_0_13_276
*244 FILLER_0_13_282
*245 FILLER_0_13_346
*246 FILLER_0_13_348
*247 FILLER_0_13_66
*248 FILLER_0_13_72
*249 FILLER_0_14_101
*250 FILLER_0_14_107
*251 FILLER_0_14_123
*252 FILLER_0_14_127
*253 FILLER_0_14_157
*254 FILLER_0_14_161
*255 FILLER_0_14_169
*256 FILLER_0_14_173
*257 FILLER_0_14_177
*258 FILLER_0_14_193
*259 FILLER_0_14_195
*260 FILLER_0_14_2
*261 FILLER_0_14_225
*262 FILLER_0_14_229
*263 FILLER_0_14_247
*264 FILLER_0_14_311
*265 FILLER_0_14_317
*266 FILLER_0_14_34
*267 FILLER_0_14_37
*268 FILLER_0_15_136
*269 FILLER_0_15_148
*270 FILLER_0_15_150
*271 FILLER_0_15_157
*272 FILLER_0_15_165
*273 FILLER_0_15_173
*274 FILLER_0_15_2
*275 FILLER_0_15_205
*276 FILLER_0_15_209
*277 FILLER_0_15_212
*278 FILLER_0_15_220
*279 FILLER_0_15_236
*280 FILLER_0_15_268
*281 FILLER_0_15_276
*282 FILLER_0_15_282
*283 FILLER_0_15_346
*284 FILLER_0_15_348
*285 FILLER_0_15_66
*286 FILLER_0_15_72
*287 FILLER_0_16_101
*288 FILLER_0_16_107
*289 FILLER_0_16_139
*290 FILLER_0_16_147
*291 FILLER_0_16_155
*292 FILLER_0_16_177
*293 FILLER_0_16_184
*294 FILLER_0_16_2
*295 FILLER_0_16_200
*296 FILLER_0_16_247
*297 FILLER_0_16_251
*298 FILLER_0_16_317
*299 FILLER_0_16_34
*300 FILLER_0_16_37
*301 FILLER_0_17_104
*302 FILLER_0_17_108
*303 FILLER_0_17_110
*304 FILLER_0_17_142
*305 FILLER_0_17_146
*306 FILLER_0_17_150
*307 FILLER_0_17_152
*308 FILLER_0_17_171
*309 FILLER_0_17_175
*310 FILLER_0_17_2
*311 FILLER_0_17_206
*312 FILLER_0_17_212
*313 FILLER_0_17_259
*314 FILLER_0_17_275
*315 FILLER_0_17_279
*316 FILLER_0_17_282
*317 FILLER_0_17_314
*318 FILLER_0_17_322
*319 FILLER_0_17_66
*320 FILLER_0_17_72
*321 FILLER_0_18_101
*322 FILLER_0_18_150
*323 FILLER_0_18_177
*324 FILLER_0_18_189
*325 FILLER_0_18_2
*326 FILLER_0_18_204
*327 FILLER_0_18_220
*328 FILLER_0_18_228
*329 FILLER_0_18_230
*330 FILLER_0_18_240
*331 FILLER_0_18_244
*332 FILLER_0_18_251
*333 FILLER_0_18_317
*334 FILLER_0_18_321
*335 FILLER_0_18_34
*336 FILLER_0_18_37
*337 FILLER_0_19_114
*338 FILLER_0_19_131
*339 FILLER_0_19_135
*340 FILLER_0_19_138
*341 FILLER_0_19_147
*342 FILLER_0_19_201
*343 FILLER_0_19_209
*344 FILLER_0_19_218
*345 FILLER_0_19_250
*346 FILLER_0_19_266
*347 FILLER_0_19_274
*348 FILLER_0_19_278
*349 FILLER_0_19_28
*350 FILLER_0_19_282
*351 FILLER_0_19_346
*352 FILLER_0_19_348
*353 FILLER_0_19_60
*354 FILLER_0_19_68
*355 FILLER_0_19_72
*356 FILLER_0_19_80
*357 FILLER_0_19_84
*358 FILLER_0_1_136
*359 FILLER_0_1_142
*360 FILLER_0_1_150
*361 FILLER_0_1_154
*362 FILLER_0_1_156
*363 FILLER_0_1_183
*364 FILLER_0_1_199
*365 FILLER_0_1_2
*366 FILLER_0_1_203
*367 FILLER_0_1_209
*368 FILLER_0_1_212
*369 FILLER_0_1_216
*370 FILLER_0_1_243
*371 FILLER_0_1_275
*372 FILLER_0_1_279
*373 FILLER_0_1_282
*374 FILLER_0_1_346
*375 FILLER_0_1_348
*376 FILLER_0_1_66
*377 FILLER_0_1_72
*378 FILLER_0_20_101
*379 FILLER_0_20_124
*380 FILLER_0_20_128
*381 FILLER_0_20_141
*382 FILLER_0_20_161
*383 FILLER_0_20_171
*384 FILLER_0_20_190
*385 FILLER_0_20_198
*386 FILLER_0_20_202
*387 FILLER_0_20_233
*388 FILLER_0_20_237
*389 FILLER_0_20_244
*390 FILLER_0_20_247
*391 FILLER_0_20_28
*392 FILLER_0_20_311
*393 FILLER_0_20_317
*394 FILLER_0_20_32
*395 FILLER_0_20_34
*396 FILLER_0_20_37
*397 FILLER_0_21_104
*398 FILLER_0_21_112
*399 FILLER_0_21_116
*400 FILLER_0_21_130
*401 FILLER_0_21_138
*402 FILLER_0_21_197
*403 FILLER_0_21_199
*404 FILLER_0_21_2
*405 FILLER_0_21_229
*406 FILLER_0_21_231
*407 FILLER_0_21_263
*408 FILLER_0_21_279
*409 FILLER_0_21_282
*410 FILLER_0_21_314
*411 FILLER_0_21_322
*412 FILLER_0_21_66
*413 FILLER_0_21_72
*414 FILLER_0_22_107
*415 FILLER_0_22_111
*416 FILLER_0_22_130
*417 FILLER_0_22_134
*418 FILLER_0_22_136
*419 FILLER_0_22_169
*420 FILLER_0_22_173
*421 FILLER_0_22_193
*422 FILLER_0_22_2
*423 FILLER_0_22_264
*424 FILLER_0_22_296
*425 FILLER_0_22_312
*426 FILLER_0_22_314
*427 FILLER_0_22_317
*428 FILLER_0_22_321
*429 FILLER_0_22_34
*430 FILLER_0_22_37
*431 FILLER_0_22_69
*432 FILLER_0_22_73
*433 FILLER_0_22_75
*434 FILLER_0_23_119
*435 FILLER_0_23_123
*436 FILLER_0_23_125
*437 FILLER_0_23_148
*438 FILLER_0_23_157
*439 FILLER_0_23_159
*440 FILLER_0_23_270
*441 FILLER_0_23_278
*442 FILLER_0_23_28
*443 FILLER_0_23_282
*444 FILLER_0_23_314
*445 FILLER_0_23_322
*446 FILLER_0_23_60
*447 FILLER_0_23_68
*448 FILLER_0_23_72
*449 FILLER_0_23_88
*450 FILLER_0_24_101
*451 FILLER_0_24_115
*452 FILLER_0_24_123
*453 FILLER_0_24_133
*454 FILLER_0_24_140
*455 FILLER_0_24_173
*456 FILLER_0_24_195
*457 FILLER_0_24_2
*458 FILLER_0_24_206
*459 FILLER_0_24_238
*460 FILLER_0_24_241
*461 FILLER_0_24_252
*462 FILLER_0_24_284
*463 FILLER_0_24_300
*464 FILLER_0_24_308
*465 FILLER_0_24_312
*466 FILLER_0_24_314
*467 FILLER_0_24_317
*468 FILLER_0_24_321
*469 FILLER_0_24_34
*470 FILLER_0_24_37
*471 FILLER_0_25_125
*472 FILLER_0_25_127
*473 FILLER_0_25_136
*474 FILLER_0_25_142
*475 FILLER_0_25_174
*476 FILLER_0_25_176
*477 FILLER_0_25_195
*478 FILLER_0_25_2
*479 FILLER_0_25_205
*480 FILLER_0_25_209
*481 FILLER_0_25_212
*482 FILLER_0_25_220
*483 FILLER_0_25_224
*484 FILLER_0_25_256
*485 FILLER_0_25_260
*486 FILLER_0_25_276
*487 FILLER_0_25_282
*488 FILLER_0_25_314
*489 FILLER_0_25_322
*490 FILLER_0_25_66
*491 FILLER_0_25_72
*492 FILLER_0_25_88
*493 FILLER_0_26_101
*494 FILLER_0_26_117
*495 FILLER_0_26_127
*496 FILLER_0_26_143
*497 FILLER_0_26_167
*498 FILLER_0_26_183
*499 FILLER_0_26_187
*500 FILLER_0_26_2
*501 FILLER_0_26_242
*502 FILLER_0_26_244
*503 FILLER_0_26_247
*504 FILLER_0_26_311
*505 FILLER_0_26_317
*506 FILLER_0_26_321
*507 FILLER_0_26_34
*508 FILLER_0_26_37
*509 FILLER_0_27_136
*510 FILLER_0_27_156
*511 FILLER_0_27_172
*512 FILLER_0_27_180
*513 FILLER_0_27_2
*514 FILLER_0_27_212
*515 FILLER_0_27_216
*516 FILLER_0_27_282
*517 FILLER_0_27_314
*518 FILLER_0_27_322
*519 FILLER_0_27_66
*520 FILLER_0_27_72
*521 FILLER_0_28_101
*522 FILLER_0_28_107
*523 FILLER_0_28_120
*524 FILLER_0_28_162
*525 FILLER_0_28_166
*526 FILLER_0_28_174
*527 FILLER_0_28_183
*528 FILLER_0_28_2
*529 FILLER_0_28_215
*530 FILLER_0_28_231
*531 FILLER_0_28_239
*532 FILLER_0_28_243
*533 FILLER_0_28_247
*534 FILLER_0_28_311
*535 FILLER_0_28_317
*536 FILLER_0_28_34
*537 FILLER_0_28_37
*538 FILLER_0_29_130
*539 FILLER_0_29_138
*540 FILLER_0_29_142
*541 FILLER_0_29_150
*542 FILLER_0_29_152
*543 FILLER_0_29_157
*544 FILLER_0_29_165
*545 FILLER_0_29_174
*546 FILLER_0_29_178
*547 FILLER_0_29_212
*548 FILLER_0_29_276
*549 FILLER_0_29_28
*550 FILLER_0_29_282
*551 FILLER_0_29_346
*552 FILLER_0_29_348
*553 FILLER_0_29_60
*554 FILLER_0_29_68
*555 FILLER_0_29_72
*556 FILLER_0_29_88
*557 FILLER_0_2_101
*558 FILLER_0_2_107
*559 FILLER_0_2_139
*560 FILLER_0_2_143
*561 FILLER_0_2_171
*562 FILLER_0_2_177
*563 FILLER_0_2_2
*564 FILLER_0_2_241
*565 FILLER_0_2_247
*566 FILLER_0_2_311
*567 FILLER_0_2_317
*568 FILLER_0_2_34
*569 FILLER_0_2_37
*570 FILLER_0_30_101
*571 FILLER_0_30_115
*572 FILLER_0_30_119
*573 FILLER_0_30_123
*574 FILLER_0_30_131
*575 FILLER_0_30_135
*576 FILLER_0_30_137
*577 FILLER_0_30_190
*578 FILLER_0_30_222
*579 FILLER_0_30_238
*580 FILLER_0_30_242
*581 FILLER_0_30_244
*582 FILLER_0_30_247
*583 FILLER_0_30_28
*584 FILLER_0_30_311
*585 FILLER_0_30_317
*586 FILLER_0_30_32
*587 FILLER_0_30_333
*588 FILLER_0_30_34
*589 FILLER_0_30_341
*590 FILLER_0_30_37
*591 FILLER_0_31_118
*592 FILLER_0_31_122
*593 FILLER_0_31_138
*594 FILLER_0_31_142
*595 FILLER_0_31_150
*596 FILLER_0_31_154
*597 FILLER_0_31_156
*598 FILLER_0_31_2
*599 FILLER_0_31_205
*600 FILLER_0_31_209
*601 FILLER_0_31_212
*602 FILLER_0_31_276
*603 FILLER_0_31_282
*604 FILLER_0_31_346
*605 FILLER_0_31_348
*606 FILLER_0_31_66
*607 FILLER_0_31_72
*608 FILLER_0_31_88
*609 FILLER_0_32_101
*610 FILLER_0_32_107
*611 FILLER_0_32_139
*612 FILLER_0_32_143
*613 FILLER_0_32_145
*614 FILLER_0_32_177
*615 FILLER_0_32_181
*616 FILLER_0_32_2
*617 FILLER_0_32_247
*618 FILLER_0_32_311
*619 FILLER_0_32_317
*620 FILLER_0_32_34
*621 FILLER_0_32_37
*622 FILLER_0_33_136
*623 FILLER_0_33_142
*624 FILLER_0_33_2
*625 FILLER_0_33_206
*626 FILLER_0_33_212
*627 FILLER_0_33_276
*628 FILLER_0_33_282
*629 FILLER_0_33_346
*630 FILLER_0_33_348
*631 FILLER_0_33_66
*632 FILLER_0_33_72
*633 FILLER_0_34_101
*634 FILLER_0_34_107
*635 FILLER_0_34_171
*636 FILLER_0_34_177
*637 FILLER_0_34_2
*638 FILLER_0_34_241
*639 FILLER_0_34_247
*640 FILLER_0_34_311
*641 FILLER_0_34_317
*642 FILLER_0_34_34
*643 FILLER_0_34_37
*644 FILLER_0_35_136
*645 FILLER_0_35_142
*646 FILLER_0_35_2
*647 FILLER_0_35_206
*648 FILLER_0_35_212
*649 FILLER_0_35_276
*650 FILLER_0_35_282
*651 FILLER_0_35_346
*652 FILLER_0_35_348
*653 FILLER_0_35_66
*654 FILLER_0_35_72
*655 FILLER_0_36_101
*656 FILLER_0_36_107
*657 FILLER_0_36_171
*658 FILLER_0_36_177
*659 FILLER_0_36_2
*660 FILLER_0_36_241
*661 FILLER_0_36_247
*662 FILLER_0_36_311
*663 FILLER_0_36_317
*664 FILLER_0_36_34
*665 FILLER_0_36_37
*666 FILLER_0_37_136
*667 FILLER_0_37_142
*668 FILLER_0_37_2
*669 FILLER_0_37_206
*670 FILLER_0_37_212
*671 FILLER_0_37_276
*672 FILLER_0_37_282
*673 FILLER_0_37_346
*674 FILLER_0_37_348
*675 FILLER_0_37_66
*676 FILLER_0_37_72
*677 FILLER_0_38_101
*678 FILLER_0_38_107
*679 FILLER_0_38_171
*680 FILLER_0_38_177
*681 FILLER_0_38_2
*682 FILLER_0_38_241
*683 FILLER_0_38_247
*684 FILLER_0_38_311
*685 FILLER_0_38_317
*686 FILLER_0_38_34
*687 FILLER_0_38_37
*688 FILLER_0_39_136
*689 FILLER_0_39_142
*690 FILLER_0_39_2
*691 FILLER_0_39_206
*692 FILLER_0_39_212
*693 FILLER_0_39_276
*694 FILLER_0_39_282
*695 FILLER_0_39_346
*696 FILLER_0_39_348
*697 FILLER_0_39_66
*698 FILLER_0_39_72
*699 FILLER_0_3_136
*700 FILLER_0_3_142
*701 FILLER_0_3_2
*702 FILLER_0_3_206
*703 FILLER_0_3_212
*704 FILLER_0_3_276
*705 FILLER_0_3_282
*706 FILLER_0_3_346
*707 FILLER_0_3_348
*708 FILLER_0_3_66
*709 FILLER_0_3_72
*710 FILLER_0_40_101
*711 FILLER_0_40_107
*712 FILLER_0_40_171
*713 FILLER_0_40_177
*714 FILLER_0_40_2
*715 FILLER_0_40_241
*716 FILLER_0_40_247
*717 FILLER_0_40_311
*718 FILLER_0_40_317
*719 FILLER_0_40_34
*720 FILLER_0_40_37
*721 FILLER_0_41_136
*722 FILLER_0_41_142
*723 FILLER_0_41_2
*724 FILLER_0_41_206
*725 FILLER_0_41_212
*726 FILLER_0_41_276
*727 FILLER_0_41_282
*728 FILLER_0_41_346
*729 FILLER_0_41_348
*730 FILLER_0_41_66
*731 FILLER_0_41_72
*732 FILLER_0_42_101
*733 FILLER_0_42_107
*734 FILLER_0_42_171
*735 FILLER_0_42_177
*736 FILLER_0_42_2
*737 FILLER_0_42_241
*738 FILLER_0_42_247
*739 FILLER_0_42_311
*740 FILLER_0_42_317
*741 FILLER_0_42_34
*742 FILLER_0_42_37
*743 FILLER_0_43_136
*744 FILLER_0_43_142
*745 FILLER_0_43_174
*746 FILLER_0_43_2
*747 FILLER_0_43_201
*748 FILLER_0_43_209
*749 FILLER_0_43_212
*750 FILLER_0_43_276
*751 FILLER_0_43_282
*752 FILLER_0_43_346
*753 FILLER_0_43_348
*754 FILLER_0_43_66
*755 FILLER_0_43_72
*756 FILLER_0_44_104
*757 FILLER_0_44_138
*758 FILLER_0_44_142
*759 FILLER_0_44_172
*760 FILLER_0_44_176
*761 FILLER_0_44_2
*762 FILLER_0_44_232
*763 FILLER_0_44_236
*764 FILLER_0_44_240
*765 FILLER_0_44_274
*766 FILLER_0_44_308
*767 FILLER_0_44_342
*768 FILLER_0_44_346
*769 FILLER_0_44_348
*770 FILLER_0_44_36
*771 FILLER_0_44_70
*772 FILLER_0_4_101
*773 FILLER_0_4_107
*774 FILLER_0_4_171
*775 FILLER_0_4_177
*776 FILLER_0_4_2
*777 FILLER_0_4_241
*778 FILLER_0_4_247
*779 FILLER_0_4_311
*780 FILLER_0_4_317
*781 FILLER_0_4_34
*782 FILLER_0_4_37
*783 FILLER_0_5_136
*784 FILLER_0_5_142
*785 FILLER_0_5_2
*786 FILLER_0_5_206
*787 FILLER_0_5_212
*788 FILLER_0_5_276
*789 FILLER_0_5_282
*790 FILLER_0_5_346
*791 FILLER_0_5_348
*792 FILLER_0_5_66
*793 FILLER_0_5_72
*794 FILLER_0_6_101
*795 FILLER_0_6_107
*796 FILLER_0_6_171
*797 FILLER_0_6_177
*798 FILLER_0_6_2
*799 FILLER_0_6_241
*800 FILLER_0_6_247
*801 FILLER_0_6_311
*802 FILLER_0_6_317
*803 FILLER_0_6_34
*804 FILLER_0_6_37
*805 FILLER_0_7_136
*806 FILLER_0_7_142
*807 FILLER_0_7_2
*808 FILLER_0_7_206
*809 FILLER_0_7_212
*810 FILLER_0_7_276
*811 FILLER_0_7_282
*812 FILLER_0_7_346
*813 FILLER_0_7_348
*814 FILLER_0_7_66
*815 FILLER_0_7_72
*816 FILLER_0_8_101
*817 FILLER_0_8_107
*818 FILLER_0_8_171
*819 FILLER_0_8_177
*820 FILLER_0_8_2
*821 FILLER_0_8_241
*822 FILLER_0_8_247
*823 FILLER_0_8_311
*824 FILLER_0_8_317
*825 FILLER_0_8_34
*826 FILLER_0_8_37
*827 FILLER_0_9_136
*828 FILLER_0_9_142
*829 FILLER_0_9_2
*830 FILLER_0_9_206
*831 FILLER_0_9_212
*832 FILLER_0_9_276
*833 FILLER_0_9_282
*834 FILLER_0_9_346
*835 FILLER_0_9_348
*836 FILLER_0_9_66
*837 FILLER_0_9_72
*838 PHY_EDGE_ROW_0_Left_45
*839 PHY_EDGE_ROW_0_Right_0
*840 PHY_EDGE_ROW_10_Left_55
*841 PHY_EDGE_ROW_10_Right_10
*842 PHY_EDGE_ROW_11_Left_56
*843 PHY_EDGE_ROW_11_Right_11
*844 PHY_EDGE_ROW_12_Left_57
*845 PHY_EDGE_ROW_12_Right_12
*846 PHY_EDGE_ROW_13_Left_58
*847 PHY_EDGE_ROW_13_Right_13
*848 PHY_EDGE_ROW_14_Left_59
*849 PHY_EDGE_ROW_14_Right_14
*850 PHY_EDGE_ROW_15_Left_60
*851 PHY_EDGE_ROW_15_Right_15
*852 PHY_EDGE_ROW_16_Left_61
*853 PHY_EDGE_ROW_16_Right_16
*854 PHY_EDGE_ROW_17_Left_62
*855 PHY_EDGE_ROW_17_Right_17
*856 PHY_EDGE_ROW_18_Left_63
*857 PHY_EDGE_ROW_18_Right_18
*858 PHY_EDGE_ROW_19_Left_64
*859 PHY_EDGE_ROW_19_Right_19
*860 PHY_EDGE_ROW_1_Left_46
*861 PHY_EDGE_ROW_1_Right_1
*862 PHY_EDGE_ROW_20_Left_65
*863 PHY_EDGE_ROW_20_Right_20
*864 PHY_EDGE_ROW_21_Left_66
*865 PHY_EDGE_ROW_21_Right_21
*866 PHY_EDGE_ROW_22_Left_67
*867 PHY_EDGE_ROW_22_Right_22
*868 PHY_EDGE_ROW_23_Left_68
*869 PHY_EDGE_ROW_23_Right_23
*870 PHY_EDGE_ROW_24_Left_69
*871 PHY_EDGE_ROW_24_Right_24
*872 PHY_EDGE_ROW_25_Left_70
*873 PHY_EDGE_ROW_25_Right_25
*874 PHY_EDGE_ROW_26_Left_71
*875 PHY_EDGE_ROW_26_Right_26
*876 PHY_EDGE_ROW_27_Left_72
*877 PHY_EDGE_ROW_27_Right_27
*878 PHY_EDGE_ROW_28_Left_73
*879 PHY_EDGE_ROW_28_Right_28
*880 PHY_EDGE_ROW_29_Left_74
*881 PHY_EDGE_ROW_29_Right_29
*882 PHY_EDGE_ROW_2_Left_47
*883 PHY_EDGE_ROW_2_Right_2
*884 PHY_EDGE_ROW_30_Left_75
*885 PHY_EDGE_ROW_30_Right_30
*886 PHY_EDGE_ROW_31_Left_76
*887 PHY_EDGE_ROW_31_Right_31
*888 PHY_EDGE_ROW_32_Left_77
*889 PHY_EDGE_ROW_32_Right_32
*890 PHY_EDGE_ROW_33_Left_78
*891 PHY_EDGE_ROW_33_Right_33
*892 PHY_EDGE_ROW_34_Left_79
*893 PHY_EDGE_ROW_34_Right_34
*894 PHY_EDGE_ROW_35_Left_80
*895 PHY_EDGE_ROW_35_Right_35
*896 PHY_EDGE_ROW_36_Left_81
*897 PHY_EDGE_ROW_36_Right_36
*898 PHY_EDGE_ROW_37_Left_82
*899 PHY_EDGE_ROW_37_Right_37
*900 PHY_EDGE_ROW_38_Left_83
*901 PHY_EDGE_ROW_38_Right_38
*902 PHY_EDGE_ROW_39_Left_84
*903 PHY_EDGE_ROW_39_Right_39
*904 PHY_EDGE_ROW_3_Left_48
*905 PHY_EDGE_ROW_3_Right_3
*906 PHY_EDGE_ROW_40_Left_85
*907 PHY_EDGE_ROW_40_Right_40
*908 PHY_EDGE_ROW_41_Left_86
*909 PHY_EDGE_ROW_41_Right_41
*910 PHY_EDGE_ROW_42_Left_87
*911 PHY_EDGE_ROW_42_Right_42
*912 PHY_EDGE_ROW_43_Left_88
*913 PHY_EDGE_ROW_43_Right_43
*914 PHY_EDGE_ROW_44_Left_89
*915 PHY_EDGE_ROW_44_Right_44
*916 PHY_EDGE_ROW_4_Left_49
*917 PHY_EDGE_ROW_4_Right_4
*918 PHY_EDGE_ROW_5_Left_50
*919 PHY_EDGE_ROW_5_Right_5
*920 PHY_EDGE_ROW_6_Left_51
*921 PHY_EDGE_ROW_6_Right_6
*922 PHY_EDGE_ROW_7_Left_52
*923 PHY_EDGE_ROW_7_Right_7
*924 PHY_EDGE_ROW_8_Left_53
*925 PHY_EDGE_ROW_8_Right_8
*926 PHY_EDGE_ROW_9_Left_54
*927 PHY_EDGE_ROW_9_Right_9
*928 TAP_TAPCELL_ROW_0_90
*929 TAP_TAPCELL_ROW_0_91
*930 TAP_TAPCELL_ROW_0_92
*931 TAP_TAPCELL_ROW_0_93
*932 TAP_TAPCELL_ROW_0_94
*933 TAP_TAPCELL_ROW_0_95
*934 TAP_TAPCELL_ROW_0_96
*935 TAP_TAPCELL_ROW_0_97
*936 TAP_TAPCELL_ROW_0_98
*937 TAP_TAPCELL_ROW_0_99
*938 TAP_TAPCELL_ROW_10_140
*939 TAP_TAPCELL_ROW_10_141
*940 TAP_TAPCELL_ROW_10_142
*941 TAP_TAPCELL_ROW_10_143
*942 TAP_TAPCELL_ROW_10_144
*943 TAP_TAPCELL_ROW_11_145
*944 TAP_TAPCELL_ROW_11_146
*945 TAP_TAPCELL_ROW_11_147
*946 TAP_TAPCELL_ROW_11_148
*947 TAP_TAPCELL_ROW_12_149
*948 TAP_TAPCELL_ROW_12_150
*949 TAP_TAPCELL_ROW_12_151
*950 TAP_TAPCELL_ROW_12_152
*951 TAP_TAPCELL_ROW_12_153
*952 TAP_TAPCELL_ROW_13_154
*953 TAP_TAPCELL_ROW_13_155
*954 TAP_TAPCELL_ROW_13_156
*955 TAP_TAPCELL_ROW_13_157
*956 TAP_TAPCELL_ROW_14_158
*957 TAP_TAPCELL_ROW_14_159
*958 TAP_TAPCELL_ROW_14_160
*959 TAP_TAPCELL_ROW_14_161
*960 TAP_TAPCELL_ROW_14_162
*961 TAP_TAPCELL_ROW_15_163
*962 TAP_TAPCELL_ROW_15_164
*963 TAP_TAPCELL_ROW_15_165
*964 TAP_TAPCELL_ROW_15_166
*965 TAP_TAPCELL_ROW_16_167
*966 TAP_TAPCELL_ROW_16_168
*967 TAP_TAPCELL_ROW_16_169
*968 TAP_TAPCELL_ROW_16_170
*969 TAP_TAPCELL_ROW_16_171
*970 TAP_TAPCELL_ROW_17_172
*971 TAP_TAPCELL_ROW_17_173
*972 TAP_TAPCELL_ROW_17_174
*973 TAP_TAPCELL_ROW_17_175
*974 TAP_TAPCELL_ROW_18_176
*975 TAP_TAPCELL_ROW_18_177
*976 TAP_TAPCELL_ROW_18_178
*977 TAP_TAPCELL_ROW_18_179
*978 TAP_TAPCELL_ROW_18_180
*979 TAP_TAPCELL_ROW_19_181
*980 TAP_TAPCELL_ROW_19_182
*981 TAP_TAPCELL_ROW_19_183
*982 TAP_TAPCELL_ROW_19_184
*983 TAP_TAPCELL_ROW_1_100
*984 TAP_TAPCELL_ROW_1_101
*985 TAP_TAPCELL_ROW_1_102
*986 TAP_TAPCELL_ROW_1_103
*987 TAP_TAPCELL_ROW_20_185
*988 TAP_TAPCELL_ROW_20_186
*989 TAP_TAPCELL_ROW_20_187
*990 TAP_TAPCELL_ROW_20_188
*991 TAP_TAPCELL_ROW_20_189
*992 TAP_TAPCELL_ROW_21_190
*993 TAP_TAPCELL_ROW_21_191
*994 TAP_TAPCELL_ROW_21_192
*995 TAP_TAPCELL_ROW_21_193
*996 TAP_TAPCELL_ROW_22_194
*997 TAP_TAPCELL_ROW_22_195
*998 TAP_TAPCELL_ROW_22_196
*999 TAP_TAPCELL_ROW_22_197
*1000 TAP_TAPCELL_ROW_22_198
*1001 TAP_TAPCELL_ROW_23_199
*1002 TAP_TAPCELL_ROW_23_200
*1003 TAP_TAPCELL_ROW_23_201
*1004 TAP_TAPCELL_ROW_23_202
*1005 TAP_TAPCELL_ROW_24_203
*1006 TAP_TAPCELL_ROW_24_204
*1007 TAP_TAPCELL_ROW_24_205
*1008 TAP_TAPCELL_ROW_24_206
*1009 TAP_TAPCELL_ROW_24_207
*1010 TAP_TAPCELL_ROW_25_208
*1011 TAP_TAPCELL_ROW_25_209
*1012 TAP_TAPCELL_ROW_25_210
*1013 TAP_TAPCELL_ROW_25_211
*1014 TAP_TAPCELL_ROW_26_212
*1015 TAP_TAPCELL_ROW_26_213
*1016 TAP_TAPCELL_ROW_26_214
*1017 TAP_TAPCELL_ROW_26_215
*1018 TAP_TAPCELL_ROW_26_216
*1019 TAP_TAPCELL_ROW_27_217
*1020 TAP_TAPCELL_ROW_27_218
*1021 TAP_TAPCELL_ROW_27_219
*1022 TAP_TAPCELL_ROW_27_220
*1023 TAP_TAPCELL_ROW_28_221
*1024 TAP_TAPCELL_ROW_28_222
*1025 TAP_TAPCELL_ROW_28_223
*1026 TAP_TAPCELL_ROW_28_224
*1027 TAP_TAPCELL_ROW_28_225
*1028 TAP_TAPCELL_ROW_29_226
*1029 TAP_TAPCELL_ROW_29_227
*1030 TAP_TAPCELL_ROW_29_228
*1031 TAP_TAPCELL_ROW_29_229
*1032 TAP_TAPCELL_ROW_2_104
*1033 TAP_TAPCELL_ROW_2_105
*1034 TAP_TAPCELL_ROW_2_106
*1035 TAP_TAPCELL_ROW_2_107
*1036 TAP_TAPCELL_ROW_2_108
*1037 TAP_TAPCELL_ROW_30_230
*1038 TAP_TAPCELL_ROW_30_231
*1039 TAP_TAPCELL_ROW_30_232
*1040 TAP_TAPCELL_ROW_30_233
*1041 TAP_TAPCELL_ROW_30_234
*1042 TAP_TAPCELL_ROW_31_235
*1043 TAP_TAPCELL_ROW_31_236
*1044 TAP_TAPCELL_ROW_31_237
*1045 TAP_TAPCELL_ROW_31_238
*1046 TAP_TAPCELL_ROW_32_239
*1047 TAP_TAPCELL_ROW_32_240
*1048 TAP_TAPCELL_ROW_32_241
*1049 TAP_TAPCELL_ROW_32_242
*1050 TAP_TAPCELL_ROW_32_243
*1051 TAP_TAPCELL_ROW_33_244
*1052 TAP_TAPCELL_ROW_33_245
*1053 TAP_TAPCELL_ROW_33_246
*1054 TAP_TAPCELL_ROW_33_247
*1055 TAP_TAPCELL_ROW_34_248
*1056 TAP_TAPCELL_ROW_34_249
*1057 TAP_TAPCELL_ROW_34_250
*1058 TAP_TAPCELL_ROW_34_251
*1059 TAP_TAPCELL_ROW_34_252
*1060 TAP_TAPCELL_ROW_35_253
*1061 TAP_TAPCELL_ROW_35_254
*1062 TAP_TAPCELL_ROW_35_255
*1063 TAP_TAPCELL_ROW_35_256
*1064 TAP_TAPCELL_ROW_36_257
*1065 TAP_TAPCELL_ROW_36_258
*1066 TAP_TAPCELL_ROW_36_259
*1067 TAP_TAPCELL_ROW_36_260
*1068 TAP_TAPCELL_ROW_36_261
*1069 TAP_TAPCELL_ROW_37_262
*1070 TAP_TAPCELL_ROW_37_263
*1071 TAP_TAPCELL_ROW_37_264
*1072 TAP_TAPCELL_ROW_37_265
*1073 TAP_TAPCELL_ROW_38_266
*1074 TAP_TAPCELL_ROW_38_267
*1075 TAP_TAPCELL_ROW_38_268
*1076 TAP_TAPCELL_ROW_38_269
*1077 TAP_TAPCELL_ROW_38_270
*1078 TAP_TAPCELL_ROW_39_271
*1079 TAP_TAPCELL_ROW_39_272
*1080 TAP_TAPCELL_ROW_39_273
*1081 TAP_TAPCELL_ROW_39_274
*1082 TAP_TAPCELL_ROW_3_109
*1083 TAP_TAPCELL_ROW_3_110
*1084 TAP_TAPCELL_ROW_3_111
*1085 TAP_TAPCELL_ROW_3_112
*1086 TAP_TAPCELL_ROW_40_275
*1087 TAP_TAPCELL_ROW_40_276
*1088 TAP_TAPCELL_ROW_40_277
*1089 TAP_TAPCELL_ROW_40_278
*1090 TAP_TAPCELL_ROW_40_279
*1091 TAP_TAPCELL_ROW_41_280
*1092 TAP_TAPCELL_ROW_41_281
*1093 TAP_TAPCELL_ROW_41_282
*1094 TAP_TAPCELL_ROW_41_283
*1095 TAP_TAPCELL_ROW_42_284
*1096 TAP_TAPCELL_ROW_42_285
*1097 TAP_TAPCELL_ROW_42_286
*1098 TAP_TAPCELL_ROW_42_287
*1099 TAP_TAPCELL_ROW_42_288
*1100 TAP_TAPCELL_ROW_43_289
*1101 TAP_TAPCELL_ROW_43_290
*1102 TAP_TAPCELL_ROW_43_291
*1103 TAP_TAPCELL_ROW_43_292
*1104 TAP_TAPCELL_ROW_44_293
*1105 TAP_TAPCELL_ROW_44_294
*1106 TAP_TAPCELL_ROW_44_295
*1107 TAP_TAPCELL_ROW_44_296
*1108 TAP_TAPCELL_ROW_44_297
*1109 TAP_TAPCELL_ROW_44_298
*1110 TAP_TAPCELL_ROW_44_299
*1111 TAP_TAPCELL_ROW_44_300
*1112 TAP_TAPCELL_ROW_44_301
*1113 TAP_TAPCELL_ROW_44_302
*1114 TAP_TAPCELL_ROW_4_113
*1115 TAP_TAPCELL_ROW_4_114
*1116 TAP_TAPCELL_ROW_4_115
*1117 TAP_TAPCELL_ROW_4_116
*1118 TAP_TAPCELL_ROW_4_117
*1119 TAP_TAPCELL_ROW_5_118
*1120 TAP_TAPCELL_ROW_5_119
*1121 TAP_TAPCELL_ROW_5_120
*1122 TAP_TAPCELL_ROW_5_121
*1123 TAP_TAPCELL_ROW_6_122
*1124 TAP_TAPCELL_ROW_6_123
*1125 TAP_TAPCELL_ROW_6_124
*1126 TAP_TAPCELL_ROW_6_125
*1127 TAP_TAPCELL_ROW_6_126
*1128 TAP_TAPCELL_ROW_7_127
*1129 TAP_TAPCELL_ROW_7_128
*1130 TAP_TAPCELL_ROW_7_129
*1131 TAP_TAPCELL_ROW_7_130
*1132 TAP_TAPCELL_ROW_8_131
*1133 TAP_TAPCELL_ROW_8_132
*1134 TAP_TAPCELL_ROW_8_133
*1135 TAP_TAPCELL_ROW_8_134
*1136 TAP_TAPCELL_ROW_8_135
*1137 TAP_TAPCELL_ROW_9_136
*1138 TAP_TAPCELL_ROW_9_137
*1139 TAP_TAPCELL_ROW_9_138
*1140 TAP_TAPCELL_ROW_9_139
*1141 _099_
*1142 _100_
*1143 _101_
*1144 _102_
*1145 _103_
*1146 _104_
*1147 _105_
*1148 _106_
*1149 _107_
*1150 _108_
*1151 _109_
*1152 _110_
*1153 _111_
*1154 _112_
*1155 _113_
*1156 _114_
*1157 _115_
*1158 _116_
*1159 _117_
*1160 _118_
*1161 _119_
*1162 _120_
*1163 _121_
*1164 _122_
*1165 _123_
*1166 _124_
*1167 _125_
*1168 _126_
*1169 _127_
*1170 _128_
*1171 _129_
*1172 _130_
*1173 _131_
*1174 _132_
*1175 _133_
*1176 _134_
*1177 _135_
*1178 _136_
*1179 _137_
*1180 _138_
*1181 _139_
*1182 _140_
*1183 _141_
*1184 _142_
*1185 _143_
*1186 _144_
*1187 _145_
*1188 _146_
*1189 _147_
*1190 _148_
*1191 _149_
*1192 _150_
*1193 _151_
*1194 _152_
*1195 _153_
*1196 _154_
*1197 _155_
*1198 _156_
*1199 _157_
*1200 _158_
*1201 _159_
*1202 _160_
*1203 _161_
*1204 _162_
*1205 _163_
*1206 _164_
*1207 _165_
*1208 _166_
*1209 _167_
*1210 _168_
*1211 _169_
*1212 _170_
*1213 _171_
*1214 _172_
*1215 _173_
*1216 _174_
*1217 _175_
*1218 _176_
*1219 _177_
*1220 _178_
*1221 _179_
*1222 _180_
*1223 _181_
*1224 _182_
*1225 _183_
*1226 _184_
*1227 _185_
*1228 _186_
*1229 _187_
*1230 _188_
*1231 _189_
*1232 _190_
*1233 _191_
*1234 _192_
*1235 _193_
*1236 _194_
*1237 _195_
*1238 _196_
*1239 _197_
*1240 _198_
*1241 _199_
*1242 _200_
*1243 _201_
*1244 _202_
*1245 _203_
*1246 _204_
*1247 _205_
*1248 _206_
*1249 _207_
*1250 _208_
*1251 _209_
*1252 _210_
*1253 _211_
*1254 _212_
*1255 _213_
*1256 _214_
*1257 _215_
*1258 _216_
*1259 _217_
*1260 _218_
*1261 _219_
*1262 _220_
*1263 _221_
*1264 _222_
*1265 _225_
*1266 _226_
*1267 _227_
*1268 clkbuf_0_clk
*1269 clkbuf_1_0__f_clk
*1270 clkbuf_1_1__f_clk
*1271 ita9_25
*1272 ita9_26
*1273 output1
*1274 output10
*1275 output11
*1276 output12
*1277 output13
*1278 output14
*1279 output15
*1280 output16
*1281 output17
*1282 output18
*1283 output19
*1284 output2
*1285 output20
*1286 output21
*1287 output22
*1288 output23
*1289 output24
*1290 output3
*1291 output4
*1292 output5
*1293 output6
*1294 output7
*1295 output8
*1296 output9

*PORTS
clk I
segm[0] O
segm[10] O
segm[11] O
segm[12] O
segm[13] O
segm[1] O
segm[2] O
segm[3] O
segm[4] O
segm[5] O
segm[6] O
segm[7] O
segm[8] O
segm[9] O
sel[0] O
sel[10] O
sel[11] O
sel[1] O
sel[2] O
sel[3] O
sel[4] O
sel[5] O
sel[6] O
sel[7] O
sel[8] O
sel[9] O

*D_NET *1 0.0193344
*CONN
*P clk I
*I *185:I I *D gf180mcu_fd_sc_mcu7t5v0__antenna
*I *1268:I I *D gf180mcu_fd_sc_mcu7t5v0__clkbuf_16
*CAP
1 clk 0.00236163
2 *185:I 0.000314967
3 *1268:I 2.06403e-05
4 *1:13 0.00250772
5 *1:11 0.00453375
6 *185:I *1168:A2 0
7 *185:I *1195:A1 0.000640242
8 *185:I *94:17 0.00057304
9 *185:I *95:32 0.000178346
10 *185:I *96:16 8.21236e-05
11 *1268:I *90:24 2.38656e-05
12 *1268:I *130:191 0.000113016
13 *1:11 sel[0] 7.13618e-05
14 *1:13 *166:I 0
15 *1:13 *1175:I 8.80336e-05
16 *1:13 *1185:B 0.000159707
17 *1:13 *1187:I 0.000292328
18 *1:13 *1195:A1 0.000213482
19 *1:13 *1235:A1 0
20 *1:13 *1235:B 0
21 *1:13 *1246:D 0.00019592
22 *1:13 *1246:CLK 0.000534077
23 *1:13 *1276:I 0.00423982
24 *1:13 *76:14 0.00028596
25 *1:13 *89:10 0.000131729
26 *1:13 *89:25 0.000228771
27 *1:13 *95:19 0.000465873
28 *1:13 *95:32 0.000468823
29 *1:13 *96:24 1.23748e-05
30 *1:13 *125:8 0.00015507
31 *1:13 *130:54 0
32 *1:13 *130:67 0.000441747
*RES
1 clk *1:11 26.628 
2 *1:11 *1:13 28.392 
3 *1:13 *1268:I 9.312 
4 *1:13 *185:I 12.744 
*END

*D_NET *2 0.000841581
*CONN
*P segm[0] O
*I *1273:Z O *D gf180mcu_fd_sc_mcu7t5v0__buf_8
*CAP
1 segm[0] 0.000354456
2 *1273:Z 0.000354456
3 segm[0] segm[3] 6.0656e-05
4 segm[0] sel[7] 7.20128e-05
*RES
1 *1273:Z segm[0] 12.276 
*END

*D_NET *3 0.00107077
*CONN
*P segm[10] O
*I *1284:Z O *D gf180mcu_fd_sc_mcu7t5v0__buf_8
*CAP
1 segm[10] 0.000500888
2 *1284:Z 0.000500888
3 segm[10] segm[11] 6.8994e-05
*RES
1 *1284:Z segm[10] 13.108 
*END

*D_NET *4 0.00103764
*CONN
*P segm[11] O
*I *1290:Z O *D gf180mcu_fd_sc_mcu7t5v0__buf_8
*CAP
1 segm[11] 0.000432529
2 *1290:Z 0.000432529
3 segm[11] sel[4] 0.00010359
4 segm[10] segm[11] 6.8994e-05
*RES
1 *1290:Z segm[11] 12.692 
*END

*D_NET *5 0.00230155
*CONN
*P segm[12] O
*I *1291:Z O *D gf180mcu_fd_sc_mcu7t5v0__buf_8
*CAP
1 segm[12] 0.0011446
2 *1291:Z 0.0011446
3 segm[12] segm[7] 1.23478e-05
*RES
1 *1291:Z segm[12] 22.288 
*END

*D_NET *6 0.000974722
*CONN
*P segm[13] O
*I *1272:Z O *D gf180mcu_fd_sc_mcu7t5v0__tieh
*CAP
1 segm[13] 0.000487361
2 *1272:Z 0.000487361
*RES
1 *1272:Z segm[13] 12.692 
*END

*D_NET *7 0.00242804
*CONN
*P segm[1] O
*I *1292:Z O *D gf180mcu_fd_sc_mcu7t5v0__buf_8
*CAP
1 segm[1] 0.00114528
2 *1292:Z 0.00114528
3 segm[1] segm[4] 0.000137478
4 segm[1] *1295:I 0
*RES
1 *1292:Z segm[1] 22.184 
*END

*D_NET *8 0.00146245
*CONN
*P segm[2] O
*I *1293:Z O *D gf180mcu_fd_sc_mcu7t5v0__buf_8
*CAP
1 segm[2] 0.00065975
2 *1293:Z 0.00065975
3 segm[2] sel[2] 0.000142953
*RES
1 *1293:Z segm[2] 10.376 
*END

*D_NET *9 0.000834972
*CONN
*P segm[3] O
*I *1294:Z O *D gf180mcu_fd_sc_mcu7t5v0__buf_8
*CAP
1 segm[3] 0.000387158
2 *1294:Z 0.000387158
3 segm[0] segm[3] 6.0656e-05
*RES
1 *1294:Z segm[3] 11.86 
*END

*D_NET *10 0.00137594
*CONN
*P segm[4] O
*I *1295:Z O *D gf180mcu_fd_sc_mcu7t5v0__buf_8
*CAP
1 segm[4] 0.000550491
2 *1295:Z 0.000550491
3 segm[4] segm[8] 0.000137478
4 segm[1] segm[4] 0.000137478
*RES
1 *1295:Z segm[4] 9.96 
*END

*D_NET *11 0.00198051
*CONN
*P segm[5] O
*I *1271:ZN O *D gf180mcu_fd_sc_mcu7t5v0__tiel
*CAP
1 segm[5] 0.000843939